<?xml version="1.0" encoding="UTF-8"?>


<routes xmlns:xsi="http://www.w3.org/2001/XMLSchema-instance" xsi:noNamespaceSchemaLocation="http://sumo.dlr.de/xsd/routes_file.xsd">
    <vehicle id="busgreen14" type="bus" depart="2.00" departLane="best" departPos="0.00" arrivalPos="-1.00" color="green">
        <route edges="-69709912#3 -69709912#2 -69709912#1 -69709912#0 -69366770#5 -69366770#4 -69366770#3 -69366770#2 -69366770#1 -69366770#0 -69366788 33196585 69366753 69366781 69366777#0 69366777#1 69366777#2 115629724#0 115629724#1 115629724#2 115629724#3 115629724#4 115629724#5 685771805 685771807#0 685771807#1 685771807#2 685771807#3 115629723 790521005#0 790521005#1 33298495#12 33298495#13 33298495#14 33298495#15 33298495#16 
        -33298495#16 -33298495#15 -33298495#14 -33298495#13 -33298495#12 -33298495#11 790521004#1 790521004#2 790521007 790521008 790521009 23841604#0 23841604#1 23841604#2 23841604#3 23841604#4 685771804 685771806#0 685771806#1 685771806#2 685771806#3 685771806#4 685771806#5 685771806#6 685771806#7 685615595 69709910#1 69366741 -490347864 69366770#0 69366770#1 69366770#2 ---69366770#3 --69366770#4 69366770#5 69709912#0 69709912#1"/>
       
        <stop busStop="busStop_1" duration="20.00"/>
        <stop busStop="busStop_2" duration="20.00"/>
        <stop busStop="busStop_3" duration="20.00"/>
        <stop busStop="busStop_4" duration="20.00"/>
        <stop busStop="busStop_5" duration="20.00"/>
        <stop busStop="busStop_6" duration="20.00"/>
        <stop busStop="busStop_37" duration="20.00"/>
        <stop busStop="busStop_7" duration="20.00"/>
        <stop busStop="busStop_8" duration="20.00"/>
        <stop busStop="busStop_9" duration="20.00"/>
        <stop busStop="busStop_10" duration="20.00"/>
        <stop busStop="busStop_11" duration="20.00"/>
        <stop busStop="busStop_12" duration="20.00"/>
        <stop busStop="busStop_13" duration="20.00"/>
        
    </vehicle>
    <vehicle id="busyellow5" type="bus" depart="4.00" departLane="best" departPos="0.00" arrivalPos="-1.00" color="yellow">
        <route edges="gneE12 -69709912#3 -69709912#2 -69709912#1 -69709912#0 -69366770#5 -69366770#4 -69366770#3 -69366770#2 -69366770#1 -69366770#0 -69366788 33196585 69366753 69366781 69366777#0 69366777#1 69366777#2 -69366722#4 -69366722#3 -69366722#2 -69366722#1 -69366722#0 -790516997#2 -790516997#1 -790516997#0 790517002 790517003 790516998#1 790517000 69709905#0 69709905#1 67286794 790516992#1 790516992#2 23842259#0 23842259#1 23842259#2 23842259#3 23842259#4 67286795 -69709905#1 -69709905#0 790516999 790516998#3 790517006 -790517004 -23841573#5 -23841573#4 -34369589#5 -34369589#4 -34369589#3 -34369589#2 -34369589#1 -34369589#0 33195382#13 33195382#14 33195382#15 33195382#16 23752297#0 23752297#1 23752297#2 23752297#3 23752297#4 23752297#5 23752297#6 67136067#0 -462457330#1 -462457330#0 -465358761 462457331#3
        479835590#0 479835590#1 479835590#2 479835590#3 479835590#4 479835590#5 69709908 69709927#0 69709927#1 69709916 33170030 69709925#0 69709925#1 69709925#2 69709925#3 69709925#4 69709925#5 69709925#6 69709925#7 69709925#8 69366726#0 69366726#1 790521011 23841604#0 23841604#1 23841604#2 23841604#3 23841604#4 685771804 685771806#0 685771806#1 685771806#2 685771806#3 685771806#4 685771806#5 685771806#6 685771806#7 685615595 69709910#1 69366741 -490347864 69366770#0 69366770#1 69366770#2 ---69366770#3 --69366770#4 69366770#5 69709912#0 69709912#1 69709912#2 69709912#3 gneE10"/>
       
        <stop busStop="busStop_0" duration="20.00"/>
        <stop busStop="busStop_1" duration="20.00"/>
        <stop busStop="busStop_2" duration="20.00"/>
        <stop busStop="busStop_3" duration="20.00"/>
        <stop busStop="busStop_14" duration="20.00"/>
        <stop busStop="busStop_15" duration="20.00"/>
        <stop busStop="busStop_16" duration="20.00"/>
        <stop busStop="busStop_17" duration="20.00"/>
        <stop busStop="busStop_18" duration="20.00"/>
        <stop busStop="busStop_19" duration="20.00"/>
        <stop busStop="busStop_20" duration="20.00"/>
        <stop busStop="busStop_21" duration="20.00"/>
        <stop busStop="busStop_22" duration="20.00"/>
        <stop busStop="busStop_23" duration="20.00"/>
        <stop busStop="busStop_9" duration="20.00"/>
        <stop busStop="busStop_10" duration="20.00"/>
        <stop busStop="busStop_11" duration="20.00"/>
        <stop busStop="busStop_12" duration="20.00"/>
        <stop busStop="busStop_13" duration="20.00"/>
       
        
    </vehicle>
    <vehicle id="busred5" type="bus" depart="6.00" departLane="best" departPos="0.00" arrivalPos="-1.00" color="red">
        <route edges="69709907#5 69709907#6 69709907#7 69709907#8 69709907#9 69709907#10 69709907#11 69366751#0 69366751#1 69366738#0 69366738#1 69366732 69709910#2 69366753 69366781 69366777#0 69366777#1 69366777#2 115629724#0 115629724#1 115629724#2 115629724#3 115629724#4 115629724#5 685771805 685771807#0 685771807#1 685771807#2 685771807#3 115629723 790521005#0 790521006 790521008 790521010 -69366726#1 -33276341#2 -33276341#1 -33276341#0 -33298495#8 -33298495#7 -33298495#6 -33298495#5 -33298495#4 -33298495#3 -33298495#2 -33298495#1 -33298495#0 gneE17 -gneE16 gneE20 479835590#0 479835590#1 479835590#2 479835590#3 479835590#4
        479835590#5 69709908 69709927#0 69709929 -33195382#18 -33195382#17 -33195382#16 -33195382#15 -33195382#14 -33195382#13 34369589#0 34369589#1 34369589#2 34369589#3 34369589#4 34369589#5 23841573#4 23841573#5 790517004 790517005 790517007 -226868674#1 -226868674#0 -226868673 -23749731#2 -23749731#1 -23749731#0 -69709907#7 -69709907#6 33195382#0 581635178"/>
    
        <stop busStop="busStop_24" duration="20.00"/>
        <stop busStop="busStop_25" duration="20.00"/>
        <stop busStop="busStop_4" duration="20.00"/>
        <stop busStop="busStop_5" duration="20.00"/>
        <stop busStop="busStop_6" duration="20.00"/>
        <stop busStop="busStop_37" duration="20.00"/>
        <stop busStop="busStop_26" duration="20.00"/>
        <stop busStop="busStop_27" duration="20.00"/>
        <stop busStop="busStop_28" duration="20.00"/>
        <stop busStop="busStop_29" duration="20.00"/>
        <stop busStop="busStop_30" duration="20.00"/>
        <stop busStop="busStop_31" duration="20.00"/>
        <stop busStop="busStop_32" duration="20.00"/>
        
    </vehicle>
   
    <vehicle id="busblue12" type="bus" depart="8.00" departLane="best" departPos="0.00" arrivalPos="-1.00" color="blue">
        <route edges="69709907#5 69709907#6 69709907#7 69709907#8 69709907#9 69709907#10 69709907#11 69366751#0 69366751#1 69366738#0 69366738#1 69366732 69709910#2 69366753 69366781 69366777#0 69366777#1 69366777#2 115629724#0 115629724#1 115629724#2 115629724#3 115629724#4 115629724#5 685771805 685771807#0 685771807#1 685771807#2 685771807#3 115629723 790521005#0 790521006 790521008 790521010 -69366726#1 -69366726#0 69366772#0 69366772#1 69366772#2 69366772#3 69366772#4 69366772#5 69366772#6 69366772#7 
        -69366772#7 -69366772#6 -69366772#5 -69366772#4 -69366772#3 -69366772#2 -69366772#1 -69366772#0 -69709925#8 -69709925#7 -69709925#6 -69709925#5 -69709925#4 -69709925#3 -69709925#2 -69709925#1 -69709925#0 69709937 33170029#1 33170029#2 69709927#0 69709929 -33195382#18 -33195382#17 -33195382#16 -33195382#15 -33195382#14 -33195382#13 -33195382#12 -33195382#11 -33195382#10 -33195382#9 -33195382#8 -33195382#7 -33195382#6 -33195382#5 -33195382#4 -33195382#3 -33195382#2 -33195382#1 581635178 69709907#5 69709907#6"/>

        <stop busStop="busStop_24" duration="20.00"/>
        <stop busStop="busStop_35" duration="20.00"/>
        <stop busStop="busStop_25" duration="20.00"/>
        <stop busStop="busStop_4" duration="20.00"/>
        <stop busStop="busStop_5" duration="20.00"/>
        <stop busStop="busStop_6" duration="20.00"/>
        <stop busStop="busStop_37" duration="20.00"/>
        <stop busStop="busStop_39" duration="20.00"/>
        <stop busStop="busStop_40" duration="20.00"/>
        <stop busStop="busStop_41" duration="20.00"/>
        <stop busStop="busStop_44" duration="20.00"/>
        <stop busStop="busStop_42" duration="20.00"/>
        <stop busStop="busStop_43" duration="20.00"/>
        <stop busStop="busStop_30" duration="20.00"/>
        <stop busStop="busStop_45" duration="20.00"/>
       <stop busStop="busStop_46" duration="20.00"/>

    </vehicle>
    <vehicle id="buspurple10" type="bus" depart="10.00" departLane="best" departPos="0.00" arrivalPos="-1.00" color="#CC00FF">
        <route edges="69709907#5 33195382#0 33195382#1 33195382#2 33195382#3 33195382#4 33195382#5 33195382#6 33195382#7 33195382#8 33195382#9 33195382#10 33195382#11 33195382#12 34369589#0 34369589#1 34369589#2 34369589#3 34369589#4 34369589#5 -23841573#3 -23841573#2 -23841573#1 -23841573#0 69709925#5 69709925#6 69709925#7 69709925#8 69366772#0 69366772#1 69366772#2 69366772#3 69366772#4 69366772#5 69366772#6 69366772#7
        -69366772#7 -69366772#6 -69366772#5 -69366772#4 -69366772#3 -69366772#2 -69366772#1 -69366772#0 69366726#0 69366726#1 790521011 23841604#0 23841604#1 23841604#2 23841604#3 23841604#4 685771804 685771806#0 685771806#1 685771806#2 685771806#3 685771806#4 685771806#5 685771806#6 685771806#7 685615595 69366764 -69366738#1 -69366738#0 -69366751#1 -69366751#0 -69709907#11 -69709907#10 -69709907#9 -69709907#8 -69709907#7 -69709907#6 33195382#0 581635178 69709907#5"/>
        
        <stop busStop="busStop_47" duration="20.00"/>
        <stop busStop="busStop_48" duration="20.00"/>
        <stop busStop="busStop_31" duration="20.00"/>
        <stop busStop="busStop_50" duration="20.00"/>
        <stop busStop="busStop_22" duration="20.00"/>
        <stop busStop="busStop_40" duration="20.00"/>
        <stop busStop="busStop_41" duration="20.00"/>
        <stop busStop="busStop_23" duration="20.00"/>
        <stop busStop="busStop_38" duration="20.00"/>
        <stop busStop="busStop_9" duration="20.00"/>
        <stop busStop="busStop_10" duration="20.00"/>
        <stop busStop="busStop_49" duration="20.00"/>
        <stop busStop="busStop_36" duration="20.00"/>

    </vehicle>
     <vehicle id="busorange17go" type="bus" depart="12.00" departLane="best" departPos="0.00" arrivalPos="-1.00" color="#FF9900">
        <route edges="69709907#5 33195382#0 581635178 -69709907#4 -69709907#3 -69709907#2 -69709907#1 -69709907#0 -436969362#3 -436969362#2 -436969362#1 -436969362#0 -69366791 -69709944 -69366767#16 -69366767#15 -69366767#14 -69366767#13 -69366767#12 -69366767#11 -69366767#10 -69366767#9 -69366767#8 -69366767#7 -69366767#6 -69366767#5 -69366767#4 -69366767#3 -69366767#2 -69366767#1 -69366767#0 69366750#0 69366750#1 69366750#2 101514297#0"/>
        
        <stop busStop="busStop_33" duration="20.00"/>
        <stop busStop="busStop_34" duration="20.00"/>
        <stop busStop="busStop_52" duration="20.00"/>
        <stop busStop="busStop_54" duration="20.00"/>
        <stop busStop="busStop_55" duration="20.00"/>

    </vehicle>
    <vehicle id="busgreen15" type="bus" depart="302.00" departLane="best" departPos="0.00" arrivalPos="-1.00" color="green">
        <route edges="-69709912#3 -69709912#2 -69709912#1 -69709912#0 -69366770#5 -69366770#4 -69366770#3 -69366770#2 -69366770#1 -69366770#0 -69366788 33196585 69366753 69366781 69366777#0 69366777#1 69366777#2 115629724#0 115629724#1 115629724#2 115629724#3 115629724#4 115629724#5 685771805 685771807#0 685771807#1 685771807#2 685771807#3 115629723 790521005#0 790521005#1 33298495#12 33298495#13 33298495#14 33298495#15 33298495#16 
        -33298495#16 -33298495#15 -33298495#14 -33298495#13 -33298495#12 -33298495#11 790521004#1 790521004#2 790521007 790521008 790521009 23841604#0 23841604#1 23841604#2 23841604#3 23841604#4 685771804 685771806#0 685771806#1 685771806#2 685771806#3 685771806#4 685771806#5 685771806#6 685771806#7 685615595 69709910#1 69366741 -490347864 69366770#0 69366770#1 69366770#2 ---69366770#3 --69366770#4 69366770#5 69709912#0 69709912#1"/>
       
        <stop busStop="busStop_1" duration="20.00"/>
        <stop busStop="busStop_2" duration="20.00"/>
        <stop busStop="busStop_3" duration="20.00"/>
        <stop busStop="busStop_4" duration="20.00"/>
        <stop busStop="busStop_5" duration="20.00"/>
        <stop busStop="busStop_6" duration="20.00"/>
        <stop busStop="busStop_37" duration="20.00"/>
        <stop busStop="busStop_7" duration="20.00"/>
        <stop busStop="busStop_8" duration="20.00"/>
        <stop busStop="busStop_9" duration="20.00"/>
        <stop busStop="busStop_10" duration="20.00"/>
        <stop busStop="busStop_11" duration="20.00"/>
        <stop busStop="busStop_12" duration="20.00"/>
        <stop busStop="busStop_13" duration="20.00"/>
        
    </vehicle>
    <vehicle id="busyellow6" type="bus" depart="304.00" departLane="best" departPos="0.00" arrivalPos="-1.00" color="yellow">
        <route edges="gneE12 -69709912#3 -69709912#2 -69709912#1 -69709912#0 -69366770#5 -69366770#4 -69366770#3 -69366770#2 -69366770#1 -69366770#0 -69366788 33196585 69366753 69366781 69366777#0 69366777#1 69366777#2 -69366722#4 -69366722#3 -69366722#2 -69366722#1 -69366722#0 -790516997#2 -790516997#1 -790516997#0 790517002 790517003 790516998#1 790517000 69709905#0 69709905#1 67286794 790516992#1 790516992#2 23842259#0 23842259#1 23842259#2 23842259#3 23842259#4 67286795 -69709905#1 -69709905#0 790516999 790516998#3 790517006 -790517004 -23841573#5 -23841573#4 -34369589#5 -34369589#4 -34369589#3 -34369589#2 -34369589#1 -34369589#0 33195382#13 33195382#14 33195382#15 33195382#16 23752297#0 23752297#1 23752297#2 23752297#3 23752297#4 23752297#5 23752297#6 67136067#0 -462457330#1 -462457330#0 -465358761 462457331#3
        479835590#0 479835590#1 479835590#2 479835590#3 479835590#4 479835590#5 69709908 69709927#0 69709927#1 69709916 33170030 69709925#0 69709925#1 69709925#2 69709925#3 69709925#4 69709925#5 69709925#6 69709925#7 69709925#8 69366726#0 69366726#1 790521011 23841604#0 23841604#1 23841604#2 23841604#3 23841604#4 685771804 685771806#0 685771806#1 685771806#2 685771806#3 685771806#4 685771806#5 685771806#6 685771806#7 685615595 69709910#1 69366741 -490347864 69366770#0 69366770#1 69366770#2 ---69366770#3 --69366770#4 69366770#5 69709912#0 69709912#1 69709912#2 69709912#3 gneE10"/>
       
        <stop busStop="busStop_0" duration="20.00"/>
        <stop busStop="busStop_1" duration="20.00"/>
        <stop busStop="busStop_2" duration="20.00"/>
        <stop busStop="busStop_3" duration="20.00"/>
        <stop busStop="busStop_14" duration="20.00"/>
        <stop busStop="busStop_15" duration="20.00"/>
        <stop busStop="busStop_16" duration="20.00"/>
        <stop busStop="busStop_17" duration="20.00"/>
        <stop busStop="busStop_18" duration="20.00"/>
        <stop busStop="busStop_19" duration="20.00"/>
        <stop busStop="busStop_20" duration="20.00"/>
        <stop busStop="busStop_21" duration="20.00"/>
        <stop busStop="busStop_22" duration="20.00"/>
        <stop busStop="busStop_23" duration="20.00"/>
        <stop busStop="busStop_9" duration="20.00"/>
        <stop busStop="busStop_10" duration="20.00"/>
        <stop busStop="busStop_11" duration="20.00"/>
        <stop busStop="busStop_12" duration="20.00"/>
        <stop busStop="busStop_13" duration="20.00"/>
       
        
    </vehicle>
    <vehicle id="busred1" type="bus" depart="306.00" departLane="best" departPos="0.00" arrivalPos="-1.00" color="red">
        <route edges="69709907#5 69709907#6 69709907#7 69709907#8 69709907#9 69709907#10 69709907#11 69366751#0 69366751#1 69366738#0 69366738#1 69366732 69709910#2 69366753 69366781 69366777#0 69366777#1 69366777#2 115629724#0 115629724#1 115629724#2 115629724#3 115629724#4 115629724#5 685771805 685771807#0 685771807#1 685771807#2 685771807#3 115629723 790521005#0 790521006 790521008 790521010 -69366726#1 -33276341#2 -33276341#1 -33276341#0 -33298495#8 -33298495#7 -33298495#6 -33298495#5 -33298495#4 -33298495#3 -33298495#2 -33298495#1 -33298495#0 gneE17 -gneE16 gneE20 479835590#0 479835590#1 479835590#2 479835590#3 479835590#4
        479835590#5 69709908 69709927#0 69709929 -33195382#18 -33195382#17 -33195382#16 -33195382#15 -33195382#14 -33195382#13 34369589#0 34369589#1 34369589#2 34369589#3 34369589#4 34369589#5 23841573#4 23841573#5 790517004 790517005 790517007 -226868674#1 -226868674#0 -226868673 -23749731#2 -23749731#1 -23749731#0 -69709907#7 -69709907#6 33195382#0 581635178"/>
    
        <stop busStop="busStop_24" duration="20.00"/>
        <stop busStop="busStop_25" duration="20.00"/>
        <stop busStop="busStop_4" duration="20.00"/>
        <stop busStop="busStop_5" duration="20.00"/>
        <stop busStop="busStop_6" duration="20.00"/>
        <stop busStop="busStop_37" duration="20.00"/>
        <stop busStop="busStop_26" duration="20.00"/>
        <stop busStop="busStop_27" duration="20.00"/>
        <stop busStop="busStop_28" duration="20.00"/>
        <stop busStop="busStop_29" duration="20.00"/>
        <stop busStop="busStop_30" duration="20.00"/>
        <stop busStop="busStop_31" duration="20.00"/>
        <stop busStop="busStop_32" duration="20.00"/>
        
    </vehicle>
    <vehicle id="busblue13" type="bus" depart="308.00" departLane="best" departPos="0.00" arrivalPos="-1.00" color="blue">
        <route edges="69709907#5 69709907#6 69709907#7 69709907#8 69709907#9 69709907#10 69709907#11 69366751#0 69366751#1 69366738#0 69366738#1 69366732 69709910#2 69366753 69366781 69366777#0 69366777#1 69366777#2 115629724#0 115629724#1 115629724#2 115629724#3 115629724#4 115629724#5 685771805 685771807#0 685771807#1 685771807#2 685771807#3 115629723 790521005#0 790521006 790521008 790521010 -69366726#1 -69366726#0 69366772#0 69366772#1 69366772#2 69366772#3 69366772#4 69366772#5 69366772#6 69366772#7 
        -69366772#7 -69366772#6 -69366772#5 -69366772#4 -69366772#3 -69366772#2 -69366772#1 -69366772#0 -69709925#8 -69709925#7 -69709925#6 -69709925#5 -69709925#4 -69709925#3 -69709925#2 -69709925#1 -69709925#0 69709937 33170029#1 33170029#2 69709927#0 69709929 -33195382#18 -33195382#17 -33195382#16 -33195382#15 -33195382#14 -33195382#13 -33195382#12 -33195382#11 -33195382#10 -33195382#9 -33195382#8 -33195382#7 -33195382#6 -33195382#5 -33195382#4 -33195382#3 -33195382#2 -33195382#1 581635178 69709907#5 69709907#6"/>

        <stop busStop="busStop_24" duration="20.00"/>
        <stop busStop="busStop_35" duration="20.00"/>
        <stop busStop="busStop_25" duration="20.00"/>
        <stop busStop="busStop_4" duration="20.00"/>
        <stop busStop="busStop_5" duration="20.00"/>
        <stop busStop="busStop_6" duration="20.00"/>
        <stop busStop="busStop_37" duration="20.00"/>
        <stop busStop="busStop_39" duration="20.00"/>
        <stop busStop="busStop_40" duration="20.00"/>
        <stop busStop="busStop_41" duration="20.00"/>
        <stop busStop="busStop_44" duration="20.00"/>
        <stop busStop="busStop_42" duration="20.00"/>
        <stop busStop="busStop_43" duration="20.00"/>
        <stop busStop="busStop_30" duration="20.00"/>
        <stop busStop="busStop_45" duration="20.00"/>
       <stop busStop="busStop_46" duration="20.00"/>

    </vehicle>
    <vehicle id="buspurple11" type="bus" depart="310.00" departLane="best" departPos="0.00" arrivalPos="-1.00" color="#CC00FF">
        <route edges="69709907#5 33195382#0 33195382#1 33195382#2 33195382#3 33195382#4 33195382#5 33195382#6 33195382#7 33195382#8 33195382#9 33195382#10 33195382#11 33195382#12 34369589#0 34369589#1 34369589#2 34369589#3 34369589#4 34369589#5 -23841573#3 -23841573#2 -23841573#1 -23841573#0 69709925#5 69709925#6 69709925#7 69709925#8 69366772#0 69366772#1 69366772#2 69366772#3 69366772#4 69366772#5 69366772#6 69366772#7
        -69366772#7 -69366772#6 -69366772#5 -69366772#4 -69366772#3 -69366772#2 -69366772#1 -69366772#0 69366726#0 69366726#1 790521011 23841604#0 23841604#1 23841604#2 23841604#3 23841604#4 685771804 685771806#0 685771806#1 685771806#2 685771806#3 685771806#4 685771806#5 685771806#6 685771806#7 685615595 69366764 -69366738#1 -69366738#0 -69366751#1 -69366751#0 -69709907#11 -69709907#10 -69709907#9 -69709907#8 -69709907#7 -69709907#6 33195382#0 581635178 69709907#5"/>

        <stop busStop="busStop_47" duration="20.00"/>
        <stop busStop="busStop_48" duration="20.00"/>
        <stop busStop="busStop_31" duration="20.00"/>
        <stop busStop="busStop_50" duration="20.00"/>
        <stop busStop="busStop_22" duration="20.00"/>
        <stop busStop="busStop_40" duration="20.00"/>
        <stop busStop="busStop_41" duration="20.00"/>
        <stop busStop="busStop_23" duration="20.00"/>
        <stop busStop="busStop_38" duration="20.00"/>
        <stop busStop="busStop_9" duration="20.00"/>
        <stop busStop="busStop_10" duration="20.00"/>
        <stop busStop="busStop_49" duration="20.00"/>
        <stop busStop="busStop_36" duration="20.00"/>

    </vehicle>
    <vehicle id="busorange17back" type="bus" depart="390.00" departLane="best" departPos="0.00" arrivalPos="-1.00" color="#FF9900">
        <route edges="101514296#1 101514299#0 101514299#1 101514299#2 101514299#3 69366767#0 69366767#1 69366767#2 69366767#3 69366767#4 69366767#5 69366767#6 25229824#0 25229824#1 25229824#2 33195337#1 33195337#2 33195337#3 -69366780 -33196009#1 -33196009#0 69366767#8 69366767#9 69366767#10 69366767#11 69366767#12 69366767#13 69366767#14 69366767#15 69366767#16 69709944 69366791 436969362#0 436969362#1 436969362#2 436969362#3 69709907#0 69709907#1 69709907#2 69709907#3 69709907#4 69709907#5 69709907#6 69709907#7 23749731#0 23749731#1 23749731#2 
        226868673 226868674#0 226868674#1 790517008 790516998#6 790516998#7 790516998#0 790516998#1 790517000 69709905#0 69709905#1 67286794 790516992#1 790516992#2 790516991#0 790516991#1 790516991#2 790516991#3 790516991#4 790516991#5 790516991#6 790516991#7 790516991#8 685771806#2 685771806#3 685771806#4 685771806#5 685771806#6 685771806#7 685615595 69366764 -69366738#1 -69366738#0 -69366751#1 -69366751#0 -69709907#11 -69709907#10 -69709907#9 -69709907#8 -69709907#7 -69709907#6 33195382#0 581635178 69709907#5"/>
        
        <stop busStop="busStop_57" duration="20.00"/>
        <stop busStop="busStop_58" duration="20.00"/>
        <stop busStop="busStop_56" duration="20.00"/>
        <stop busStop="busStop_53" duration="20.00"/>
        <stop busStop="busStop_51" duration="20.00"/>
        <stop busStop="busStop_65" duration="20.00"/>
        <stop busStop="busStop_24" duration="20.00"/>
        <stop busStop="busStop_61" duration="20.00"/>
        <stop busStop="busStop_62" duration="20.00"/>
        
        
    </vehicle>
    <vehicle id="busgreen16" type="bus" depart="602.00" departLane="best" departPos="0.00" arrivalPos="-1.00" color="green">
        <route edges="-69709912#3 -69709912#2 -69709912#1 -69709912#0 -69366770#5 -69366770#4 -69366770#3 -69366770#2 -69366770#1 -69366770#0 -69366788 33196585 69366753 69366781 69366777#0 69366777#1 69366777#2 115629724#0 115629724#1 115629724#2 115629724#3 115629724#4 115629724#5 685771805 685771807#0 685771807#1 685771807#2 685771807#3 115629723 790521005#0 790521005#1 33298495#12 33298495#13 33298495#14 33298495#15 33298495#16 
        -33298495#16 -33298495#15 -33298495#14 -33298495#13 -33298495#12 -33298495#11 790521004#1 790521004#2 790521007 790521008 790521009 23841604#0 23841604#1 23841604#2 23841604#3 23841604#4 685771804 685771806#0 685771806#1 685771806#2 685771806#3 685771806#4 685771806#5 685771806#6 685771806#7 685615595 69709910#1 69366741 -490347864 69366770#0 69366770#1 69366770#2 ---69366770#3 --69366770#4 69366770#5 69709912#0 69709912#1"/>
       
        <stop busStop="busStop_1" duration="20.00"/>
        <stop busStop="busStop_2" duration="20.00"/>
        <stop busStop="busStop_3" duration="20.00"/>
        <stop busStop="busStop_4" duration="20.00"/>
        <stop busStop="busStop_5" duration="20.00"/>
        <stop busStop="busStop_6" duration="20.00"/>
        <stop busStop="busStop_37" duration="20.00"/>
        <stop busStop="busStop_7" duration="20.00"/>
        <stop busStop="busStop_8" duration="20.00"/>
        <stop busStop="busStop_9" duration="20.00"/>
        <stop busStop="busStop_10" duration="20.00"/>
        <stop busStop="busStop_11" duration="20.00"/>
        <stop busStop="busStop_12" duration="20.00"/>
        <stop busStop="busStop_13" duration="20.00"/>
        
    </vehicle>
    <vehicle id="busyellow7" type="bus" depart="604.00" departLane="best" departPos="0.00" arrivalPos="-1.00" color="yellow">
        <route edges="gneE12 -69709912#3 -69709912#2 -69709912#1 -69709912#0 -69366770#5 -69366770#4 -69366770#3 -69366770#2 -69366770#1 -69366770#0 -69366788 33196585 69366753 69366781 69366777#0 69366777#1 69366777#2 -69366722#4 -69366722#3 -69366722#2 -69366722#1 -69366722#0 -790516997#2 -790516997#1 -790516997#0 790517002 790517003 790516998#1 790517000 69709905#0 69709905#1 67286794 790516992#1 790516992#2 23842259#0 23842259#1 23842259#2 23842259#3 23842259#4 67286795 -69709905#1 -69709905#0 790516999 790516998#3 790517006 -790517004 -23841573#5 -23841573#4 -34369589#5 -34369589#4 -34369589#3 -34369589#2 -34369589#1 -34369589#0 33195382#13 33195382#14 33195382#15 33195382#16 23752297#0 23752297#1 23752297#2 23752297#3 23752297#4 23752297#5 23752297#6 67136067#0 -462457330#1 -462457330#0 -465358761 462457331#3
        479835590#0 479835590#1 479835590#2 479835590#3 479835590#4 479835590#5 69709908 69709927#0 69709927#1 69709916 33170030 69709925#0 69709925#1 69709925#2 69709925#3 69709925#4 69709925#5 69709925#6 69709925#7 69709925#8 69366726#0 69366726#1 790521011 23841604#0 23841604#1 23841604#2 23841604#3 23841604#4 685771804 685771806#0 685771806#1 685771806#2 685771806#3 685771806#4 685771806#5 685771806#6 685771806#7 685615595 69709910#1 69366741 -490347864 69366770#0 69366770#1 69366770#2 ---69366770#3 --69366770#4 69366770#5 69709912#0 69709912#1 69709912#2 69709912#3 gneE10"/>
       
        <stop busStop="busStop_0" duration="20.00"/>
        <stop busStop="busStop_1" duration="20.00"/>
        <stop busStop="busStop_2" duration="20.00"/>
        <stop busStop="busStop_3" duration="20.00"/>
        <stop busStop="busStop_14" duration="20.00"/>
        <stop busStop="busStop_15" duration="20.00"/>
        <stop busStop="busStop_16" duration="20.00"/>
        <stop busStop="busStop_17" duration="20.00"/>
        <stop busStop="busStop_18" duration="20.00"/>
        <stop busStop="busStop_19" duration="20.00"/>
        <stop busStop="busStop_20" duration="20.00"/>
        <stop busStop="busStop_21" duration="20.00"/>
        <stop busStop="busStop_22" duration="20.00"/>
        <stop busStop="busStop_23" duration="20.00"/>
        <stop busStop="busStop_9" duration="20.00"/>
        <stop busStop="busStop_10" duration="20.00"/>
        <stop busStop="busStop_11" duration="20.00"/>
        <stop busStop="busStop_12" duration="20.00"/>
        <stop busStop="busStop_13" duration="20.00"/>
       
        
    </vehicle>
    <vehicle id="busred2" type="bus" depart="606.00" departLane="best" departPos="0.00" arrivalPos="-1.00" color="red">
        <route edges="69709907#5 69709907#6 69709907#7 69709907#8 69709907#9 69709907#10 69709907#11 69366751#0 69366751#1 69366738#0 69366738#1 69366732 69709910#2 69366753 69366781 69366777#0 69366777#1 69366777#2 115629724#0 115629724#1 115629724#2 115629724#3 115629724#4 115629724#5 685771805 685771807#0 685771807#1 685771807#2 685771807#3 115629723 790521005#0 790521006 790521008 790521010 -69366726#1 -33276341#2 -33276341#1 -33276341#0 -33298495#8 -33298495#7 -33298495#6 -33298495#5 -33298495#4 -33298495#3 -33298495#2 -33298495#1 -33298495#0 gneE17 -gneE16 gneE20 479835590#0 479835590#1 479835590#2 479835590#3 479835590#4
        479835590#5 69709908 69709927#0 69709929 -33195382#18 -33195382#17 -33195382#16 -33195382#15 -33195382#14 -33195382#13 34369589#0 34369589#1 34369589#2 34369589#3 34369589#4 34369589#5 23841573#4 23841573#5 790517004 790517005 790517007 -226868674#1 -226868674#0 -226868673 -23749731#2 -23749731#1 -23749731#0 -69709907#7 -69709907#6 33195382#0 581635178"/>
    
        <stop busStop="busStop_24" duration="20.00"/>
        <stop busStop="busStop_25" duration="20.00"/>
        <stop busStop="busStop_4" duration="20.00"/>
        <stop busStop="busStop_5" duration="20.00"/>
        <stop busStop="busStop_6" duration="20.00"/>
        <stop busStop="busStop_37" duration="20.00"/>
        <stop busStop="busStop_26" duration="20.00"/>
        <stop busStop="busStop_27" duration="20.00"/>
        <stop busStop="busStop_28" duration="20.00"/>
        <stop busStop="busStop_29" duration="20.00"/>
        <stop busStop="busStop_30" duration="20.00"/>
        <stop busStop="busStop_31" duration="20.00"/>
        <stop busStop="busStop_32" duration="20.00"/>
        
    </vehicle>
    <vehicle id="busorange18go" type="bus" depart="608.00" departLane="best" departPos="0.00" arrivalPos="-1.00" color="#FF9900">
        <route edges="69709907#5 33195382#0 581635178 -69709907#4 -69709907#3 -69709907#2 -69709907#1 -69709907#0 -436969362#3 -436969362#2 -436969362#1 -436969362#0 -69366791 -69709944 -69366767#16 -69366767#15 -69366767#14 -69366767#13 -69366767#12 -69366767#11 -69366767#10 -69366767#9 -69366767#8 -69366767#7 -69366767#6 -69366767#5 -69366767#4 -69366767#3 -69366767#2 -69366767#1 -69366767#0 69366750#0 69366750#1 69366750#2 101514297#0"/>
        <stop busStop="busStop_33" duration="20.00"/>
        <stop busStop="busStop_34" duration="20.00"/>
        <stop busStop="busStop_52" duration="20.00"/>
        <stop busStop="busStop_54" duration="20.00"/>
        <stop busStop="busStop_55" duration="20.00"/>

    </vehicle>