<?xml version="1.0" encoding="UTF-8"?>

<!-- generated on 04/25/21 23:14:40 by Eclipse SUMO netedit Version 1.6.0
<configuration xmlns:xsi="http://www.w3.org/2001/XMLSchema-instance" xsi:noNamespaceSchemaLocation="http://sumo.dlr.de/xsd/netconvertConfiguration.xsd">

    <input>
        <sumo-net-file value="C:\Users\tatsu\OneDrive%20-%20Khon%20Kaen%20University\Desktop\ProjectII\Dynamic\TESTsimu\test\kku_maps.net.xml"/>
    </input>

    <output>
        <output-file value="C:\Users\tatsu\OneDrive%20-%20Khon%20Kaen%20University\Desktop\ProjectII\Dynamic\TESTsimu\test\kku_maps.net.xml"/>
    </output>

    <processing>
        <geometry.min-radius.fix.railways value="false"/>
        <geometry.max-grade.fix value="false"/>
        <offset.disable-normalization value="true"/>
        <lefthand value="true"/>
    </processing>

    <junctions>
        <no-turnarounds value="true"/>
        <junctions.corner-detail value="5"/>
        <junctions.limit-turn-speed value="5.5"/>
        <rectangular-lane-cut value="false"/>
    </junctions>

    <pedestrian>
        <walkingareas value="false"/>
    </pedestrian>

    <netedit>
        <additional-files value="C:\Users\tatsu\OneDrive%20-%20Khon%20Kaen%20University\Desktop\ProjectII\Dynamic\TESTsimu\test\polykku.add.xml"/>
    </netedit>

    <report>
        <aggregate-warnings value="5"/>
    </report>

</configuration>
-->

<additional xmlns:xsi="http://www.w3.org/2001/XMLSchema-instance" xsi:noNamespaceSchemaLocation="http://sumo.dlr.de/xsd/additional_file.xsd">
   
    <poly id="poly_0" color="red" fill="1" layer="128.00" shape="3820.400000,7784.180000 3801.580000,7636.130000 3858.490000,7629.710000 3879.030000,7775.200000"/>
    <poly id="poly_1" color="red" fill="1" layer="128.00" shape="3902.560000,7771.350000 3896.570000,7740.970000 3934.650000,7739.680000 3937.650000,7768.350000"/>
    <poly id="poly_10" color="red" fill="1" layer="128.00" shape="4632.360000,7592.070000 4626.800000,7536.010000 4710.240000,7528.740000 4715.380000,7588.640000"/>
    <poly id="poly_11" color="red" fill="1" layer="128.00" shape="4444.890000,6330.120000 4797.000000,6292.050000 4768.450000,6025.590000 4411.590000,6054.140000"/>
    <poly id="poly_12" color="red" fill="1" layer="128.00" shape="5246.990000,7666.990000 5244.970000,7668.000000 5374.120000,7660.930000 5364.030000,7553.980000 5234.880000,7563.060000"/>
    <poly id="poly_13" color="red" fill="1" layer="128.00" shape="5017.610000,7392.500000 4965.700000,7353.570000 4963.540000,7295.170000 5002.470000,7258.410000 5041.400000,7258.410000 5080.330000,7262.730000 5117.100000,7262.730000 5134.400000,7293.010000 5156.030000,7344.920000 5123.590000,7388.170000 5067.350000,7396.830000"/>
    <poly id="poly_14" color="red" fill="1" layer="128.00" shape="5123.670000,6107.550000 5119.500000,6070.030000 5161.190000,6070.030000 5162.030000,6103.380000"/>
    <poly id="poly_15" color="red" fill="1" layer="128.00" shape="5166.200000,6103.380000 5166.200000,6075.030000 5196.220000,6075.030000 5196.220000,6102.550000"/>
    <poly id="poly_16" color="red" fill="1" layer="128.00" shape="5199.550000,6101.720000 5199.550000,6075.870000 5229.570000,6075.870000 5230.400000,6101.720000"/>
    <poly id="poly_17" color="red" fill="1" layer="128.00" shape="5232.910000,6104.220000 5232.070000,6080.040000 5260.420000,6079.200000 5261.260000,6102.550000"/>
    <poly id="poly_18" color="red" fill="1" layer="128.00" shape="4594.160000,6643.680000 4661.210000,6578.790000 4801.790000,6702.070000 4799.630000,6808.050000 4678.510000,6790.750000"/>
    <poly id="poly_19" color="red" fill="1" layer="128.00" shape="5106.750000,6914.030000 5180.290000,6769.120000 5323.030000,6879.420000 5323.030000,6927.010000 5307.890000,6946.470000 5290.590000,6968.100000 5266.800000,6989.730000 5234.360000,6989.730000 5195.430000,6987.560000"/>
    <poly id="poly_2" color="red" fill="1" layer="128.00" shape="4006.970000,7758.940000 3978.300000,7615.590000 4022.370000,7606.600000 4051.040000,7751.660000"/>
    <poly id="poly_20" color="red" fill="1" layer="128.00" shape="5377.090000,7474.820000 5361.560000,7428.210000 5427.040000,7422.660000 5440.360000,7464.830000"/>
    <poly id="poly_21" color="red" fill="1" layer="128.00" shape="5248.350000,7495.910000 5237.250000,7441.530000 5293.850000,7433.760000 5309.390000,7489.250000"/>
    <poly id="poly_22" color="red" fill="1" layer="128.00" shape="5592.410000,7453.740000 5586.860000,7392.690000 5697.850000,7380.480000 5703.400000,7453.740000"/>
    <poly id="poly_23" color="red" fill="1" layer="128.00" shape="4289.570000,3566.240000 4357.610000,3749.430000 4514.630000,3786.070000 4600.990000,3770.370000 4619.310000,3684.010000 4627.160000,3615.960000 4608.840000,3547.920000 4564.350000,3511.280000"/>
    <poly id="poly_24" color="red" fill="1" layer="128.00" shape="5150.570000,3738.960000 4896.720000,3757.280000 4833.910000,3678.770000 4815.590000,3608.110000 4823.440000,3542.690000 4878.400000,3479.880000 5103.460000,3474.650000 5127.010000,3558.390000 5124.400000,3618.580000 5134.860000,3712.790000"/>
    <poly id="poly_25" color="red" fill="1" layer="128.00" shape="4855.420000,3466.980000 4869.920000,3448.860000 5090.490000,3421.940000 5096.700000,3455.070000"/>
    <poly id="poly_26" color="red" fill="1" layer="128.00" shape="4810.410000,4070.350000 4848.820000,4105.800000 4896.090000,4129.440000 4980.290000,4141.260000 5052.680000,4123.530000 5107.340000,4079.210000 5135.400000,4040.810000 5136.880000,4023.080000 5126.540000,3947.740000 4792.680000,3965.470000"/>
    <poly id="poly_27" color="red" fill="1" layer="128.00" shape="6179.670000,6558.820000 6279.560000,6544.390000 6288.440000,6581.010000 6241.830000,6585.450000 6232.950000,6599.880000 6206.310000,6607.650000 6180.780000,6607.650000"/>
    <poly id="poly_28" color="red" fill="1" layer="128.00" shape="6174.130000,6537.730000 6174.130000,6509.980000 6328.400000,6502.210000 6330.620000,6531.070000"/>
    <poly id="poly_29" color="red" fill="1" layer="128.00" shape="6331.730000,6528.850000 6331.730000,6504.430000 6494.880000,6493.330000 6493.770000,6528.850000"/>
    <poly id="poly_3" color="red" fill="1" layer="128.00" shape="3956.480000,7687.910000 3947.060000,7626.720000 3965.460000,7626.290000 3973.590000,7686.620000"/>
    <poly id="poly_30" color="red" fill="1" layer="128.00" shape="6169.690000,6497.770000 6169.690000,6467.810000 6322.850000,6463.370000 6323.960000,6493.330000"/>
    <poly id="poly_31" color="red" fill="1" layer="128.00" shape="6331.730000,6490.000000 6331.730000,6465.590000 6490.440000,6463.370000 6490.440000,6486.670000"/>
    <poly id="poly_32" color="red" fill="1" layer="128.00" shape="6231.840000,6448.940000 6231.840000,6456.710000 6231.840000,6432.290000 6320.630000,6432.290000 6315.080000,6457.820000"/>
    <poly id="poly_33" color="red" fill="1" layer="128.00" shape="6318.410000,6456.710000 6322.850000,6437.840000 6322.850000,6436.730000 6487.110000,6430.070000 6486.000000,6456.710000"/>
    <poly id="poly_34" color="red" fill="1" layer="128.00" shape="6237.390000,6430.070000 6236.280000,6407.870000 6269.570000,6407.870000 6269.570000,6428.960000"/>
    <poly id="poly_35" color="red" fill="1" layer="128.00" shape="6272.900000,6425.630000 6272.900000,6404.540000 6464.910000,6402.320000 6464.910000,6425.630000"/>
    <poly id="poly_36" color="red" fill="1" layer="128.00" shape="6234.060000,6396.770000 6234.060000,6364.590000 6317.300000,6363.480000 6318.410000,6396.770000"/>
    <poly id="poly_37" color="red" fill="1" layer="128.00" shape="6325.070000,6394.560000 6321.740000,6363.480000 6381.670000,6366.810000 6402.760000,6398.990000"/>
    <poly id="poly_38" color="red" fill="1" layer="128.00" shape="6190.770000,6335.730000 6199.650000,6292.450000 6254.040000,6293.560000 6278.450000,6341.280000"/>
    <poly id="poly_39" color="red" fill="1" layer="128.00" shape="6282.890000,6339.060000 6254.040000,6293.560000 6434.940000,6299.110000 6429.400000,6343.500000"/>
    <poly id="poly_4" color="red" fill="1" layer="128.00" shape="4173.940000,7732.430000 4154.570000,7592.320000 4214.370000,7588.330000 4229.750000,7726.160000"/>
    <poly id="poly_40" color="red" fill="1" layer="128.00" shape="6194.100000,6283.570000 6191.880000,6250.270000 6232.950000,6251.380000 6236.280000,6284.680000"/>
    <poly id="poly_41" color="red" fill="1" layer="128.00" shape="6266.240000,6285.790000 6267.350000,6258.040000 6366.130000,6265.810000 6366.130000,6292.450000"/>
    <poly id="poly_42" color="red" fill="1" layer="128.00" shape="6131.950000,6477.800000 6058.700000,6483.340000 6045.380000,6414.530000 6076.460000,6406.760000 6086.450000,6451.160000 6129.730000,6447.830000"/>
    <poly id="poly_43" color="red" fill="1" layer="128.00" shape="5827.640000,6625.610000 5868.000000,6626.620000 5857.910000,6605.430000 5817.550000,6593.320000"/>
    <poly id="poly_44" color="red" fill="1" layer="128.00" shape="5802.420000,6582.220000 5802.420000,6545.900000 5894.240000,6543.880000 5894.240000,6587.270000"/>
    <poly id="poly_45" color="red" fill="1" layer="128.00" shape="5882.130000,6629.650000 5863.970000,6604.420000 5935.600000,6590.300000 5956.790000,6617.540000"/>
    <poly id="poly_46" color="red" fill="1" layer="128.00" shape="5906.340000,6587.270000 5904.330000,6563.050000 5992.110000,6564.060000 5991.100000,6595.340000"/>
    <poly id="poly_47" color="red" fill="1" layer="128.00" shape="5598.250000,6978.180000 5491.290000,6907.560000 5524.590000,6831.880000 5608.340000,6895.450000"/>
    <poly id="poly_48" color="red" fill="1" layer="128.00" shape="5650.710000,7337.380000 5757.660000,7338.390000 5757.660000,7307.110000 5646.680000,7297.020000"/>
    <poly id="poly_49" color="red" fill="1" layer="128.00" shape="5646.680000,7287.940000 5657.770000,7249.600000 5760.690000,7275.830000 5751.610000,7303.070000"/>
    <poly id="poly_5" color="red" fill="1" layer="128.00" shape="4237.150000,7632.760000 4227.470000,7589.470000 4288.980000,7582.070000 4295.250000,7624.210000"/>
    <poly id="poly_50" color="red" fill="1" layer="128.00" shape="5640.620000,7230.430000 5640.620000,7198.140000 5768.760000,7202.180000 5763.720000,7234.460000"/>
    <poly id="poly_51" color="red" fill="1" layer="128.00" shape="5652.730000,7197.130000 5652.730000,7175.940000 5685.020000,7175.940000 5684.010000,7201.170000"/>
    <poly id="poly_52" color="red" fill="1" layer="128.00" shape="5686.030000,7195.110000 5688.040000,7182.000000 5688.040000,7182.000000 5753.630000,7182.000000 5753.630000,7201.170000"/>
    <poly id="poly_53" color="red" fill="1" layer="128.00" shape="5782.890000,7302.070000 5788.940000,7274.820000 5890.850000,7274.820000 5895.890000,7307.110000"/>
    <poly id="poly_54" color="red" fill="1" layer="128.00" shape="5876.270000,7039.780000 5876.270000,6974.360000 5894.580000,6982.210000 5899.820000,7042.400000"/>
    <poly id="poly_55" color="red" fill="1" layer="128.00" shape="5899.470000,6995.810000 5950.210000,6995.810000 5950.210000,6971.380000 5896.960000,6971.380000"/>
    <poly id="poly_56" color="red" fill="1" layer="128.00" shape="5722.800000,6912.490000 5722.170000,6873.020000 5826.170000,6874.270000 5826.800000,6915.000000"/>
    <poly id="poly_57" color="red" fill="1" layer="128.00" shape="5841.210000,7036.540000 5792.340000,7038.420000 5788.580000,6998.950000 5838.070000,7003.330000"/>
    <poly id="poly_58" color="red" fill="1" layer="128.00" shape="5975.360000,6954.000000 5976.120000,6934.290000 6018.570000,6936.570000 6026.150000,6931.260000 6054.960000,6931.260000 6054.200000,6969.160000 6016.300000,6968.410000 6003.410000,6963.100000 5970.810000,6963.100000"/>
    <poly id="poly_59" color="red" fill="1" layer="128.00" shape="5990.520000,6926.710000 5990.520000,6899.420000 6051.930000,6906.240000 6047.380000,6923.680000"/>
    <poly id="poly_6" color="red" fill="1" layer="128.00" shape="4245.130000,7722.170000 4298.660000,7717.620000 4295.250000,7699.960000 4243.420000,7705.090000"/>
    <poly id="poly_60" color="red" fill="1" layer="128.00" shape="5961.720000,6900.180000 5961.720000,6856.970000 6072.390000,6867.580000 6073.910000,6904.730000 6037.520000,6902.450000 6032.970000,6897.150000 5999.620000,6896.390000"/>
    <poly id="poly_7" color="red" fill="1" layer="128.00" shape="4325.430000,7715.340000 4308.350000,7579.220000 4360.180000,7571.820000 4372.700000,7707.370000"/>
    <poly id="poly_8" color="red" fill="1" layer="128.00" shape="4404.940000,7702.930000 4384.230000,7566.250000 4440.660000,7559.510000 4457.230000,7695.690000"/>
    <poly id="poly_9" color="red" fill="1" layer="128.00" shape="4479.500000,7690.510000 4461.370000,7555.370000 4461.370000,7555.370000 4523.510000,7543.980000 4535.410000,7682.740000"/>
</additional>
