<?xml version="1.0" encoding="UTF-8"?>

<!-- generated on 02/17/21 03:21:44 by Eclipse SUMO netedit Version 1.6.0
<configuration xmlns:xsi="http://www.w3.org/2001/XMLSchema-instance" xsi:noNamespaceSchemaLocation="http://sumo.dlr.de/xsd/netconvertConfiguration.xsd">

    <input>
        <sumo-net-file value="C:\Users\tatsu\OneDrive%20-%20Khon%20Kaen%20University\Desktop\7_8_1MON\7_8_1MON\kku_maps.net.xml"/>
    </input>

    <output>
        <output-file value="C:\Users\tatsu\OneDrive%20-%20Khon%20Kaen%20University\Desktop\7_8_1MON\7_8_1MON\kku_maps.net.xml"/>
    </output>

    <processing>
        <geometry.min-radius.fix.railways value="false"/>
        <geometry.max-grade.fix value="false"/>
        <offset.disable-normalization value="true"/>
        <lefthand value="true"/>
    </processing>

    <junctions>
        <no-turnarounds value="true"/>
        <junctions.corner-detail value="5"/>
        <junctions.limit-turn-speed value="5.5"/>
        <rectangular-lane-cut value="false"/>
    </junctions>

    <pedestrian>
        <walkingareas value="false"/>
    </pedestrian>

    <netedit>
        <additional-files value="C:\Users\tatsu\OneDrive%20-%20Khon%20Kaen%20University\Desktop\7_8_1MON\7_8_1MON\busstop.add.xml"/>
    </netedit>

    <report>
        <aggregate-warnings value="5"/>
    </report>

</configuration>
-->

<net version="1.6" junctionCornerDetail="5" lefthand="true" limitTurnSpeed="5.50" xmlns:xsi="http://www.w3.org/2001/XMLSchema-instance" xsi:noNamespaceSchemaLocation="http://sumo.dlr.de/xsd/net_file.xsd">

    <location netOffset="-261956.34,-1815601.26" convBoundary="3710.10,3117.35,8455.93,9428.06" origBoundary="102.770555,16.410565,102.849419,16.495862" projParameter="+proj=utm +zone=48 +ellps=WGS84 +datum=WGS84 +units=m +no_defs"/>

    <type id="highway.bridleway" priority="1" numLanes="1" speed="2.78" allow="pedestrian" oneway="1" width="2.00"/>
    <type id="highway.bus_guideway" priority="1" numLanes="1" speed="27.78" allow="bus" oneway="1"/>
    <type id="highway.cycleway" priority="1" numLanes="1" speed="8.33" allow="bicycle" oneway="0" width="1.00"/>
    <type id="highway.footway" priority="1" numLanes="1" speed="2.78" allow="pedestrian" oneway="1" width="2.00"/>
    <type id="highway.ford" priority="1" numLanes="1" speed="2.78" allow="army" oneway="0"/>
    <type id="highway.living_street" priority="2" numLanes="1" speed="2.78" disallow="tram rail_urban rail rail_electric rail_fast ship" oneway="0"/>
    <type id="highway.motorway" priority="14" numLanes="2" speed="39.44" allow="private emergency authority army vip passenger hov taxi bus coach delivery truck trailer motorcycle evehicle custom1 custom2" oneway="1"/>
    <type id="highway.motorway_link" priority="9" numLanes="1" speed="22.22" allow="private emergency authority army vip passenger hov taxi bus coach delivery truck trailer motorcycle evehicle custom1 custom2" oneway="1"/>
    <type id="highway.path" priority="1" numLanes="1" speed="2.78" allow="pedestrian bicycle" oneway="1" width="2.00"/>
    <type id="highway.pedestrian" priority="1" numLanes="1" speed="2.78" allow="pedestrian" oneway="1" width="2.00"/>
    <type id="highway.primary" priority="12" numLanes="2" speed="27.78" disallow="tram rail_urban rail rail_electric rail_fast ship" oneway="0"/>
    <type id="highway.primary_link" priority="7" numLanes="1" speed="22.22" disallow="tram rail_urban rail rail_electric rail_fast ship" oneway="0"/>
    <type id="highway.raceway" priority="15" numLanes="2" speed="83.33" allow="vip" oneway="0"/>
    <type id="highway.residential" priority="3" numLanes="1" speed="13.89" disallow="tram rail_urban rail rail_electric rail_fast ship" oneway="0"/>
    <type id="highway.secondary" priority="11" numLanes="1" speed="27.78" disallow="tram rail_urban rail rail_electric rail_fast ship" oneway="0"/>
    <type id="highway.secondary_link" priority="6" numLanes="1" speed="22.22" disallow="tram rail_urban rail rail_electric rail_fast ship" oneway="0"/>
    <type id="highway.service" priority="1" numLanes="1" speed="5.56" allow="pedestrian delivery bicycle" oneway="0"/>
    <type id="highway.stairs" priority="1" numLanes="1" speed="1.39" allow="pedestrian" oneway="1" width="2.00"/>
    <type id="highway.step" priority="1" numLanes="1" speed="1.39" allow="pedestrian" oneway="1" width="2.00"/>
    <type id="highway.steps" priority="1" numLanes="1" speed="1.39" allow="pedestrian" oneway="1" width="2.00"/>
    <type id="highway.tertiary" priority="10" numLanes="1" speed="22.22" disallow="tram rail_urban rail rail_electric rail_fast ship" oneway="0"/>
    <type id="highway.tertiary_link" priority="5" numLanes="1" speed="22.22" disallow="tram rail_urban rail rail_electric rail_fast ship" oneway="0"/>
    <type id="highway.track" priority="1" numLanes="1" speed="5.56" disallow="tram rail_urban rail rail_electric rail_fast ship" oneway="0"/>
    <type id="highway.trunk" priority="13" numLanes="2" speed="27.78" disallow="pedestrian bicycle tram rail_urban rail rail_electric rail_fast ship" oneway="0"/>
    <type id="highway.trunk_link" priority="8" numLanes="1" speed="22.22" disallow="pedestrian bicycle tram rail_urban rail rail_electric rail_fast ship" oneway="0"/>
    <type id="highway.unclassified" priority="4" numLanes="1" speed="13.89" disallow="tram rail_urban rail rail_electric rail_fast ship" oneway="0"/>
    <type id="highway.unsurfaced" priority="1" numLanes="1" speed="8.33" disallow="tram rail_urban rail rail_electric rail_fast ship" oneway="0"/>
    <type id="railway.highspeed" priority="21" numLanes="1" speed="69.44" allow="rail_fast" oneway="1"/>
    <type id="railway.light_rail" priority="19" numLanes="1" speed="27.78" allow="rail_urban" oneway="1"/>
    <type id="railway.preserved" priority="16" numLanes="1" speed="27.78" allow="rail" oneway="1"/>
    <type id="railway.rail" priority="20" numLanes="1" speed="44.44" allow="rail" oneway="1"/>
    <type id="railway.subway" priority="18" numLanes="1" speed="27.78" allow="rail_urban" oneway="1"/>
    <type id="railway.tram" priority="17" numLanes="1" speed="13.89" allow="tram" oneway="1"/>

    <edge id=":1157389146_0" function="internal">
        <lane id=":1157389146_0_0" index="0" disallow="tram rail_urban rail rail_electric rail_fast ship" speed="13.89" length="0.10" shape="6610.78,5918.88 6610.78,5918.88"/>
    </edge>
    <edge id=":1157389234_0" function="internal">
        <lane id=":1157389234_0_0" index="0" disallow="tram rail_urban rail rail_electric rail_fast ship" speed="13.89" length="0.10" shape="6627.21,6181.97 6627.21,6181.97"/>
    </edge>
    <edge id=":1157389464_0" function="internal">
        <lane id=":1157389464_0_0" index="0" disallow="tram rail_urban rail rail_electric rail_fast ship" speed="13.89" length="0.30" shape="6621.75,6094.68 6621.73,6094.38"/>
    </edge>
    <edge id=":1157391508_0" function="internal">
        <lane id=":1157391508_0_0" index="0" disallow="tram rail_urban rail rail_electric rail_fast ship" speed="13.89" length="0.10" shape="6631.62,6252.61 6631.62,6252.61"/>
    </edge>
    <edge id=":1157500931_0" function="internal">
        <lane id=":1157500931_0_0" index="0" disallow="tram rail_urban rail rail_electric rail_fast ship" speed="13.89" length="0.10" shape="6582.83,5488.30 6582.83,5488.30"/>
    </edge>
    <edge id=":1157500936_0" function="internal">
        <lane id=":1157500936_0_0" index="0" disallow="tram rail_urban rail rail_electric rail_fast ship" speed="13.89" length="0.30" shape="6598.27,5718.70 6598.25,5718.40"/>
    </edge>
    <edge id=":1157501642_0" function="internal">
        <lane id=":1157501642_0_0" index="0" disallow="tram rail_urban rail rail_electric rail_fast ship" speed="13.89" length="0.10" shape="6607.63,5868.42 6607.63,5868.42"/>
    </edge>
    <edge id=":1168059326_0" function="internal">
        <lane id=":1168059326_0_0" index="0" disallow="tram rail_urban rail rail_electric rail_fast ship" speed="3.65" length="4.67" shape="4715.53,7747.77 4716.43,7748.90 4717.26,7749.22 4718.02,7748.75 4718.71,7747.49"/>
    </edge>
    <edge id=":1168059332_0" function="internal">
        <lane id=":1168059332_0_0" index="0" disallow="tram rail_urban rail rail_electric rail_fast ship" speed="13.89" length="0.10" shape="4187.78,7741.38 4187.70,7741.38"/>
    </edge>
    <edge id=":1168059332_1" function="internal">
        <lane id=":1168059332_1_0" index="0" disallow="tram rail_urban rail rail_electric rail_fast ship" speed="3.65" length="2.34" shape="4187.78,7741.38 4186.65,7742.27 4186.32,7743.10"/>
    </edge>
    <edge id=":1168059332_4" function="internal">
        <lane id=":1168059332_4_0" index="0" disallow="tram rail_urban rail rail_electric rail_fast ship" speed="3.65" length="2.34" shape="4186.32,7743.10 4186.78,7743.86 4188.04,7744.56"/>
    </edge>
    <edge id=":1168059332_2" function="internal">
        <lane id=":1168059332_2_0" index="0" disallow="tram rail_urban rail rail_electric rail_fast ship" speed="13.89" length="0.10" shape="4188.12,7744.56 4188.04,7744.56"/>
    </edge>
    <edge id=":1168059332_3" function="internal">
        <lane id=":1168059332_3_0" index="0" disallow="tram rail_urban rail rail_electric rail_fast ship" speed="3.65" length="2.34" shape="4188.12,7744.56 4189.21,7743.60 4189.50,7742.76"/>
    </edge>
    <edge id=":1168059332_5" function="internal">
        <lane id=":1168059332_5_0" index="0" disallow="tram rail_urban rail rail_electric rail_fast ship" speed="3.65" length="2.34" shape="4189.50,7742.76 4188.99,7742.02 4187.70,7741.38"/>
    </edge>
    <edge id=":1168059817_0" function="internal">
        <lane id=":1168059817_0_0" index="0" disallow="tram rail_urban rail rail_electric rail_fast ship" speed="13.89" length="0.30" shape="4368.50,7720.51 4368.20,7720.55"/>
    </edge>
    <edge id=":1168059817_1" function="internal">
        <lane id=":1168059817_1_0" index="0" disallow="tram rail_urban rail rail_electric rail_fast ship" speed="3.65" length="2.34" shape="4368.50,7720.51 4367.41,7721.46 4367.11,7722.30"/>
    </edge>
    <edge id=":1168059817_4" function="internal">
        <lane id=":1168059817_4_0" index="0" disallow="tram rail_urban rail rail_electric rail_fast ship" speed="3.65" length="2.34" shape="4367.11,7722.30 4367.61,7723.04 4368.90,7723.69"/>
    </edge>
    <edge id=":1168059817_2" function="internal">
        <lane id=":1168059817_2_0" index="0" disallow="tram rail_urban rail rail_electric rail_fast ship" speed="13.89" length="0.30" shape="4368.60,7723.73 4368.90,7723.69"/>
    </edge>
    <edge id=":1168059817_3" function="internal">
        <lane id=":1168059817_3_0" index="0" disallow="tram rail_urban rail rail_electric rail_fast ship" speed="3.65" length="2.34" shape="4368.60,7723.73 4369.69,7722.78 4369.99,7721.94"/>
    </edge>
    <edge id=":1168059817_5" function="internal">
        <lane id=":1168059817_5_0" index="0" disallow="tram rail_urban rail rail_electric rail_fast ship" speed="3.65" length="2.34" shape="4369.99,7721.94 4369.49,7721.19 4368.20,7720.55"/>
    </edge>
    <edge id=":1168060320_0" function="internal">
        <lane id=":1168060320_0_0" index="0" disallow="tram rail_urban rail rail_electric rail_fast ship" speed="3.90" length="2.72" shape="3727.90,7804.37 3727.14,7804.39 3726.58,7804.15 3726.21,7803.67 3726.04,7802.93"/>
    </edge>
    <edge id=":1168060320_1" function="internal">
        <lane id=":1168060320_1_0" index="0" disallow="tram rail_urban rail rail_electric rail_fast ship" speed="3.65" length="2.08" shape="3727.90,7804.37 3726.84,7805.36 3726.65,7805.96"/>
    </edge>
    <edge id=":1168060320_4" function="internal">
        <lane id=":1168060320_4_0" index="0" disallow="tram rail_urban rail rail_electric rail_fast ship" speed="3.65" length="2.59" shape="3726.65,7805.96 3726.58,7806.21 3727.10,7806.94 3728.41,7807.53"/>
    </edge>
    <edge id=":1168060320_2" function="internal">
        <lane id=":1168060320_2_0" index="0" disallow="tram rail_urban rail rail_electric rail_fast ship" speed="6.07" length="8.17" shape="3722.85,7803.21 3723.37,7805.42 3724.47,7806.87 3726.15,7807.57 3728.41,7807.53"/>
    </edge>
    <edge id=":1168060320_3" function="internal">
        <lane id=":1168060320_3_0" index="0" disallow="tram rail_urban rail rail_electric rail_fast ship" speed="3.65" length="2.64" shape="3722.85,7803.21 3723.76,7804.34 3724.59,7804.67 3724.85,7804.51"/>
    </edge>
    <edge id=":1168060320_5" function="internal">
        <lane id=":1168060320_5_0" index="0" disallow="tram rail_urban rail rail_electric rail_fast ship" speed="3.65" length="2.04" shape="3724.85,7804.51 3725.35,7804.20 3726.04,7802.93"/>
    </edge>
    <edge id=":1168060423_0" function="internal">
        <lane id=":1168060423_0_0" index="0" disallow="tram rail_urban rail rail_electric rail_fast ship" speed="6.08" length="7.43" shape="3712.87,7637.52 3710.93,7638.09 3709.60,7639.14 3708.88,7640.68 3708.77,7642.70"/>
    </edge>
    <edge id=":1168060423_1" function="internal">
        <lane id=":1168060423_1_0" index="0" disallow="tram rail_urban rail rail_electric rail_fast ship" speed="3.65" length="2.67" shape="3712.87,7637.52 3711.79,7638.49 3711.51,7639.34 3711.70,7639.61"/>
    </edge>
    <edge id=":1168060423_4" function="internal">
        <lane id=":1168060423_4_0" index="0" disallow="tram rail_urban rail rail_electric rail_fast ship" speed="3.65" length="2.00" shape="3711.70,7639.61 3712.02,7640.07 3713.32,7640.69"/>
    </edge>
    <edge id=":1168060423_2" function="internal">
        <lane id=":1168060423_2_0" index="0" disallow="tram rail_urban rail rail_electric rail_fast ship" speed="3.91" length="2.48" shape="3711.96,7642.42 3711.99,7641.74 3712.23,7641.23 3712.68,7640.88 3713.32,7640.69"/>
    </edge>
    <edge id=":1168060423_3" function="internal">
        <lane id=":1168060423_3_0" index="0" disallow="tram rail_urban rail rail_electric rail_fast ship" speed="3.65" length="2.08" shape="3711.96,7642.42 3711.06,7641.29 3710.47,7641.06"/>
    </edge>
    <edge id=":1168060423_5" function="internal">
        <lane id=":1168060423_5_0" index="0" disallow="tram rail_urban rail rail_electric rail_fast ship" speed="3.65" length="2.60" shape="3710.47,7641.06 3710.22,7640.96 3709.46,7641.43 3708.77,7642.70"/>
    </edge>
    <edge id=":1168060632_0" function="internal">
        <lane id=":1168060632_0_0" index="0" disallow="tram rail_urban rail rail_electric rail_fast ship" speed="13.89" length="14.62" shape="4719.96,7675.48 4705.44,7677.11"/>
    </edge>
    <edge id=":1168060632_1" function="internal">
        <lane id=":1168060632_1_0" index="0" disallow="tram rail_urban rail rail_electric rail_fast ship" speed="8.20" length="6.03" shape="4719.96,7675.48 4716.25,7676.38 4714.47,7677.71"/>
    </edge>
    <edge id=":1168060632_2" function="internal">
        <lane id=":1168060632_2_0" index="0" disallow="tram rail_urban rail rail_electric rail_fast ship" speed="3.65" length="2.34" shape="4719.96,7675.48 4718.84,7676.39 4718.51,7677.22"/>
    </edge>
    <edge id=":1168060632_9" function="internal">
        <lane id=":1168060632_9_0" index="0" disallow="tram rail_urban rail rail_electric rail_fast ship" speed="8.20" length="8.35" shape="4714.47,7677.71 4713.65,7678.32 4712.17,7681.28 4711.80,7685.28"/>
    </edge>
    <edge id=":1168060632_10" function="internal">
        <lane id=":1168060632_10_0" index="0" disallow="tram rail_urban rail rail_electric rail_fast ship" speed="3.65" length="2.34" shape="4718.51,7677.22 4718.98,7677.98 4720.25,7678.67"/>
    </edge>
    <edge id=":1168060632_3" function="internal">
        <lane id=":1168060632_3_0" index="0" disallow="tram rail_urban rail rail_electric rail_fast ship" speed="6.75" length="9.41" shape="4714.99,7685.15 4715.23,7682.50 4716.19,7680.54 4717.86,7679.26 4720.25,7678.67"/>
    </edge>
    <edge id=":1168060632_4" function="internal">
        <lane id=":1168060632_4_0" index="0" disallow="tram rail_urban rail rail_electric rail_fast ship" speed="7.84" length="14.55" shape="4714.99,7685.15 4714.25,7681.17 4712.42,7678.51 4709.48,7677.16 4705.44,7677.11"/>
    </edge>
    <edge id=":1168060632_5" function="internal">
        <lane id=":1168060632_5_0" index="0" disallow="tram rail_urban rail rail_electric rail_fast ship" speed="3.65" length="4.67" shape="4714.99,7685.15 4714.14,7683.98 4713.33,7683.61 4712.55,7684.04 4711.80,7685.28"/>
    </edge>
    <edge id=":1168060632_6" function="internal">
        <lane id=":1168060632_6_0" index="0" disallow="tram rail_urban rail rail_electric rail_fast ship" speed="6.32" length="9.04" shape="4705.86,7680.29 4708.37,7680.31 4710.19,7681.15 4711.34,7682.81 4711.80,7685.28"/>
    </edge>
    <edge id=":1168060632_7" function="internal">
        <lane id=":1168060632_7_0" index="0" disallow="tram rail_urban rail rail_electric rail_fast ship" speed="13.89" length="14.48" shape="4705.86,7680.29 4720.25,7678.67"/>
    </edge>
    <edge id=":1168060632_8" function="internal">
        <lane id=":1168060632_8_0" index="0" disallow="tram rail_urban rail rail_electric rail_fast ship" speed="3.65" length="2.34" shape="4705.86,7680.29 4706.94,7679.33 4707.23,7678.49"/>
    </edge>
    <edge id=":1168060632_11" function="internal">
        <lane id=":1168060632_11_0" index="0" disallow="tram rail_urban rail rail_electric rail_fast ship" speed="3.65" length="2.34" shape="4707.23,7678.49 4706.73,7677.75 4705.44,7677.11"/>
    </edge>
    <edge id=":1168061014_0" function="internal">
        <lane id=":1168061014_0_0" index="0" disallow="tram rail_urban rail rail_electric rail_fast ship" speed="13.89" length="14.99" shape="4566.34,7694.68 4562.59,7694.82 4558.85,7695.08 4555.13,7695.44 4551.41,7695.91"/>
    </edge>
    <edge id=":1168061014_1" function="internal">
        <lane id=":1168061014_1_0" index="0" disallow="tram rail_urban rail rail_electric rail_fast ship" speed="7.76" length="6.23" shape="4566.34,7694.68 4562.25,7695.38 4560.53,7696.56"/>
    </edge>
    <edge id=":1168061014_2" function="internal">
        <lane id=":1168061014_2_0" index="0" disallow="tram rail_urban rail rail_electric rail_fast ship" speed="3.65" length="2.34" shape="4566.34,7694.68 4565.16,7695.51 4564.78,7696.32"/>
    </edge>
    <edge id=":1168061014_9" function="internal">
        <lane id=":1168061014_9_0" index="0" disallow="tram rail_urban rail rail_electric rail_fast ship" speed="7.76" length="8.57" shape="4560.53,7696.56 4559.57,7697.22 4558.30,7700.22 4558.44,7704.36"/>
    </edge>
    <edge id=":1168061014_10" function="internal">
        <lane id=":1168061014_10_0" index="0" disallow="tram rail_urban rail rail_electric rail_fast ship" speed="3.65" length="2.34" shape="4564.78,7696.32 4565.20,7697.11 4566.42,7697.87"/>
    </edge>
    <edge id=":1168061014_3" function="internal">
        <lane id=":1168061014_3_0" index="0" disallow="tram rail_urban rail rail_electric rail_fast ship" speed="6.21" length="9.05" shape="4561.59,7703.80 4561.51,7701.27 4562.28,7699.43 4563.92,7698.30 4566.42,7697.87"/>
    </edge>
    <edge id=":1168061014_4" function="internal">
        <lane id=":1168061014_4_0" index="0" disallow="tram rail_urban rail rail_electric rail_fast ship" speed="8.20" length="14.58" shape="4561.59,7703.80 4560.35,7699.88 4558.23,7697.27 4555.25,7695.94 4551.41,7695.91"/>
    </edge>
    <edge id=":1168061014_5" function="internal">
        <lane id=":1168061014_5_0" index="0" disallow="tram rail_urban rail rail_electric rail_fast ship" speed="3.65" length="4.67" shape="4561.59,7703.80 4560.59,7702.76 4559.74,7702.51 4559.02,7703.04 4558.44,7704.36"/>
    </edge>
    <edge id=":1168061014_6" function="internal">
        <lane id=":1168061014_6_0" index="0" disallow="tram rail_urban rail rail_electric rail_fast ship" speed="6.75" length="9.54" shape="4551.87,7699.08 4554.34,7699.11 4556.26,7700.00 4557.62,7701.75 4558.44,7704.36"/>
    </edge>
    <edge id=":1168061014_7" function="internal">
        <lane id=":1168061014_7_0" index="0" disallow="tram rail_urban rail rail_electric rail_fast ship" speed="13.89" length="14.61" shape="4551.87,7699.08 4555.53,7698.61 4559.13,7698.26 4562.73,7698.02 4566.42,7697.87"/>
    </edge>
    <edge id=":1168061014_8" function="internal">
        <lane id=":1168061014_8_0" index="0" disallow="tram rail_urban rail rail_electric rail_fast ship" speed="3.65" length="2.34" shape="4551.87,7699.08 4552.94,7698.12 4553.22,7697.27"/>
    </edge>
    <edge id=":1168061014_11" function="internal">
        <lane id=":1168061014_11_0" index="0" disallow="tram rail_urban rail rail_electric rail_fast ship" speed="3.65" length="2.34" shape="4553.22,7697.27 4552.71,7696.53 4551.41,7695.91"/>
    </edge>
    <edge id=":1168061857_0" function="internal">
        <lane id=":1168061857_0_0" index="0" disallow="tram rail_urban rail rail_electric rail_fast ship" speed="13.89" length="0.15" shape="5045.90,7667.86 5045.86,7667.87 5045.82,7667.87 5045.79,7667.87 5045.75,7667.87"/>
    </edge>
    <edge id=":1168061857_1" function="internal">
        <lane id=":1168061857_1_0" index="0" disallow="tram rail_urban rail rail_electric rail_fast ship" speed="3.65" length="2.34" shape="5045.90,7667.86 5044.75,7668.74 5044.40,7669.56"/>
    </edge>
    <edge id=":1168061857_4" function="internal">
        <lane id=":1168061857_4_0" index="0" disallow="tram rail_urban rail rail_electric rail_fast ship" speed="3.65" length="2.34" shape="5044.40,7669.56 5044.85,7670.33 5046.10,7671.06"/>
    </edge>
    <edge id=":1168061857_2" function="internal">
        <lane id=":1168061857_2_0" index="0" disallow="tram rail_urban rail rail_electric rail_fast ship" speed="13.89" length="0.45" shape="5045.65,7671.06 5045.78,7671.07 5045.87,7671.07 5045.97,7671.07 5046.10,7671.06"/>
    </edge>
    <edge id=":1168061857_3" function="internal">
        <lane id=":1168061857_3_0" index="0" disallow="tram rail_urban rail rail_electric rail_fast ship" speed="3.65" length="2.34" shape="5045.65,7671.06 5046.87,7670.30 5047.30,7669.52"/>
    </edge>
    <edge id=":1168061857_5" function="internal">
        <lane id=":1168061857_5_0" index="0" disallow="tram rail_urban rail rail_electric rail_fast ship" speed="3.65" length="2.34" shape="5047.30,7669.52 5046.92,7668.70 5045.75,7667.87"/>
    </edge>
    <edge id=":1172108006_0" function="internal">
        <lane id=":1172108006_0_0" index="0" disallow="tram rail_urban rail rail_electric rail_fast ship" speed="13.89" length="11.31" shape="5171.28,3395.42 5182.43,3393.55"/>
    </edge>
    <edge id=":1172108006_1" function="internal">
        <lane id=":1172108006_1_0" index="0" disallow="tram rail_urban rail rail_electric rail_fast ship" speed="22.22" length="10.92" shape="5176.05,3389.35 5177.50,3400.17"/>
    </edge>
    <edge id=":1172108006_2" function="internal">
        <lane id=":1172108006_2_0" index="0" disallow="tram rail_urban rail rail_electric rail_fast ship" speed="6.38" length="8.73" shape="5176.05,3389.35 5176.77,3391.55 5178.07,3392.98 5179.95,3393.65 5182.43,3393.55"/>
    </edge>
    <edge id=":1172108027_0" function="internal">
        <lane id=":1172108027_0_0" index="0" disallow="tram rail_urban rail rail_electric rail_fast ship" speed="13.89" length="10.64" shape="6560.80,5942.89 6562.11,5945.69 6563.38,5947.63 6564.39,5949.62 6564.92,5952.58"/>
    </edge>
    <edge id=":1172108027_1" function="internal">
        <lane id=":1172108027_1_0" index="0" disallow="tram rail_urban rail rail_electric rail_fast ship" speed="13.89" length="10.69" shape="6564.22,5941.91 6564.92,5952.58"/>
    </edge>
    <edge id=":1172108081_0" function="internal">
        <lane id=":1172108081_0_0" index="0" disallow="tram rail_urban rail rail_electric rail_fast ship" speed="18.06" length="11.19" shape="5268.26,4156.98 5269.99,4159.65 5271.41,4161.69 5272.49,4163.85 5273.20,4166.88"/>
    </edge>
    <edge id=":1172108081_1" function="internal">
        <lane id=":1172108081_1_0" index="0" disallow="tram rail_urban rail rail_electric rail_fast ship" speed="22.22" length="11.18" shape="5271.80,4155.79 5273.20,4166.88"/>
    </edge>
    <edge id=":1172108110_0" function="internal">
        <lane id=":1172108110_0_0" index="0" disallow="pedestrian bicycle tram rail_urban rail rail_electric rail_fast ship" speed="16.67" length="9.64" shape="6597.82,5904.25 6597.22,5894.63"/>
    </edge>
    <edge id=":1172108110_1" function="internal">
        <lane id=":1172108110_1_0" index="0" disallow="pedestrian bicycle tram rail_urban rail rail_electric rail_fast ship" speed="6.87" length="10.76" shape="6597.82,5904.25 6597.16,5902.43 6595.43,5901.29 6592.61,5900.84 6588.72,5901.07"/>
    </edge>
    <edge id=":1172108110_2" function="internal">
        <lane id=":1172108110_2_0" index="0" disallow="pedestrian bicycle tram rail_urban rail rail_electric rail_fast ship" speed="16.67" length="9.60" shape="6594.63,5904.43 6594.03,5894.84"/>
    </edge>
    <edge id=":1172108136_0" function="internal">
        <lane id=":1172108136_0_0" index="0" disallow="tram rail_urban rail rail_electric rail_fast ship" speed="13.89" length="0.30" shape="5237.20,3957.68 5237.24,3957.98"/>
    </edge>
    <edge id=":1172108146_0" function="internal">
        <lane id=":1172108146_0_0" index="0" disallow="tram rail_urban rail rail_electric rail_fast ship" speed="9.85" length="7.78" shape="5208.04,3344.35 5205.84,3344.46 5204.37,3343.96 5202.99,3342.98 5201.09,3341.63"/>
    </edge>
    <edge id=":1172108146_1" function="internal">
        <lane id=":1172108146_1_0" index="0" disallow="tram rail_urban rail rail_electric rail_fast ship" speed="13.89" length="7.87" shape="5208.04,3344.35 5200.28,3345.61"/>
    </edge>
    <edge id=":1172108382_0" function="internal">
        <lane id=":1172108382_0_0" index="0" disallow="tram rail_urban rail rail_electric rail_fast ship" speed="22.22" length="0.10" shape="6279.90,5938.34 6279.90,5938.34"/>
    </edge>
    <edge id=":1172108628_0" function="internal">
        <lane id=":1172108628_0_0" index="0" disallow="tram rail_urban rail rail_electric rail_fast ship" speed="6.30" length="7.73" shape="5201.45,3560.62 5200.17,3561.19 5199.29,3562.47 5198.80,3564.47 5198.71,3567.19"/>
    </edge>
    <edge id=":1172108628_1" function="internal">
        <lane id=":1172108628_1_0" index="0" disallow="tram rail_urban rail rail_electric rail_fast ship" speed="3.65" length="4.67" shape="5201.45,3560.62 5200.37,3561.58 5200.08,3562.43 5200.59,3563.16 5201.89,3563.79"/>
    </edge>
    <edge id=":1172108628_2" function="internal">
        <lane id=":1172108628_2_0" index="0" disallow="tram rail_urban rail rail_electric rail_fast ship" speed="22.22" length="9.27" shape="5197.97,3557.95 5198.30,3560.68 5198.49,3562.56 5198.60,3564.44 5198.71,3567.19"/>
    </edge>
    <edge id=":1172108628_3" function="internal">
        <lane id=":1172108628_3_0" index="0" disallow="tram rail_urban rail rail_electric rail_fast ship" speed="6.07" length="7.80" shape="5197.97,3557.95 5198.51,3560.67 5199.34,3562.55 5200.47,3563.59 5201.89,3563.79"/>
    </edge>
    <edge id=":1172108660_0" function="internal">
        <lane id=":1172108660_0_0" index="0" disallow="pedestrian bicycle tram rail_urban rail rail_electric rail_fast ship" speed="27.78" length="9.39" shape="5253.50,3349.24 5244.21,3350.58"/>
    </edge>
    <edge id=":1172108660_1" function="internal">
        <lane id=":1172108660_1_0" index="0" disallow="pedestrian bicycle tram rail_urban rail rail_electric rail_fast ship" speed="15.55" length="4.25" shape="5253.95,3352.40 5250.88,3352.11 5249.99,3351.36"/>
    </edge>
    <edge id=":1172108660_2" function="internal">
        <lane id=":1172108660_2_0" index="0" disallow="pedestrian bicycle tram rail_urban rail rail_electric rail_fast ship" speed="27.78" length="9.39" shape="5253.95,3352.40 5244.67,3353.75"/>
    </edge>
    <edge id=":1172108660_3" function="internal">
        <lane id=":1172108660_3_0" index="0" disallow="pedestrian bicycle tram rail_urban rail rail_electric rail_fast ship" speed="15.55" length="7.11" shape="5249.99,3351.36 5249.03,3350.56 5247.32,3348.52 5244.66,3346.74"/>
    </edge>
    <edge id=":1172108708_0" function="internal">
        <lane id=":1172108708_0_0" index="0" disallow="tram rail_urban rail rail_electric rail_fast ship" speed="22.22" length="9.38" shape="5489.54,5676.85 5488.22,5667.56"/>
    </edge>
    <edge id=":1172108708_1" function="internal">
        <lane id=":1172108708_1_0" index="0" disallow="tram rail_urban rail rail_electric rail_fast ship" speed="6.08" length="7.75" shape="5489.54,5676.85 5488.94,5674.15 5488.08,5672.29 5486.95,5671.26 5485.55,5671.07"/>
    </edge>
    <edge id=":1172108708_2" function="internal">
        <lane id=":1172108708_2_0" index="0" disallow="tram rail_urban rail rail_electric rail_fast ship" speed="6.10" length="7.75" shape="5486.02,5674.23 5487.30,5673.65 5488.09,5672.34 5488.40,5670.31 5488.22,5667.56"/>
    </edge>
    <edge id=":1172108708_3" function="internal">
        <lane id=":1172108708_3_0" index="0" disallow="tram rail_urban rail rail_electric rail_fast ship" speed="3.65" length="4.67" shape="5486.02,5674.23 5487.09,5673.27 5487.37,5672.42 5486.86,5671.68 5485.55,5671.07"/>
    </edge>
    <edge id=":1172108741_0" function="internal">
        <lane id=":1172108741_0_0" index="0" disallow="tram rail_urban rail rail_electric rail_fast ship" speed="8.04" length="10.06" shape="5255.45,4146.39 5258.32,4146.30 5260.74,4146.86 5262.70,4148.08 5264.20,4149.95"/>
    </edge>
    <edge id=":1172108741_1" function="internal">