<?xml version="1.0" encoding="UTF-8"?>
<!-- generated on 2021-05-03 23:04:46.121936 by generateBidiDistricts.py v1_6_0+0003-190709904e
  options: kku_maps.net.xml
-->
<tazs>
    <taz id="---69366770#3" edges="---69366770#3 --69366770#3 -69366770#3 69366770#3 gneE1"/>
    <taz id="--69366770#3" edges="---69366770#3 --69366770#3 -69366770#3 69366770#3 gneE1"/>
    <taz id="--69366770#4" edges="--69366770#4 -69366770#4 69366770#4 gneE0 gneE2"/>
    <taz id="-101176004#0" edges="-101176004#0 101176004#0"/>
    <taz id="-101176004#1" edges="-101176004#1 101176004#1"/>
    <taz id="-101176029#2" edges="-101176029#2 101176029#2"/>
    <taz id="-101176123#0" edges="-101176123#0 101176123#0"/>
    <taz id="-101508916" edges="-101508916 101508916"/>
    <taz id="-101509000" edges="-101509000 101509000"/>
    <taz id="-101509158" edges="-101509158 101509158"/>
    <taz id="-101509167" edges="-101509167 101509167"/>
    <taz id="-101509190" edges="-101509190 101509190"/>
    <taz id="-144059689" edges="-144059689 144059689"/>
    <taz id="-144059698" edges="-144059698 144059698"/>
    <taz id="-144059700" edges="-144059700 144059700"/>
    <taz id="-168686219#0" edges="-168686219#0 168686219#0"/>
    <taz id="-168686219#1" edges="-168686219#1 168686219#1"/>
    <taz id="-168686219#2" edges="-168686219#2 168686219#2"/>
    <taz id="-168686219#3" edges="-168686219#3 168686219#3"/>
    <taz id="-168686219#4" edges="-168686219#4 168686219#4"/>
    <taz id="-168686219#5" edges="-168686219#5 168686219#5"/>
    <taz id="-168686219#6" edges="-168686219#6 168686219#6"/>
    <taz id="-168686228#0" edges="-168686228#0 168686228#0"/>
    <taz id="-168686228#1" edges="-168686228#1 168686228#1"/>
    <taz id="-226849201" edges="-226849201 226849201"/>
    <taz id="-226868673" edges="-226868673 226868673"/>
    <taz id="-226868674#0" edges="-226868674#0 226868674#0"/>
    <taz id="-226868674#1" edges="-226868674#1 226868674#1"/>
    <taz id="-23749731#0" edges="-23749731#0 23749731#0"/>
    <taz id="-23749731#1" edges="-23749731#1 23749731#1"/>
    <taz id="-23749731#2" edges="-23749731#2 23749731#2"/>
    <taz id="-23750816#0" edges="-23750816#0 23750816#0"/>
    <taz id="-23750816#1" edges="-23750816#1 23750816#1"/>
    <taz id="-23750816#2" edges="-23750816#2 23750816#2"/>
    <taz id="-23750816#3" edges="-23750816#3 23750816#3"/>
    <taz id="-23750816#4" edges="-23750816#4 23750816#4"/>
    <taz id="-23750816#5" edges="-23750816#5 23750816#5"/>
    <taz id="-23750816#6" edges="-23750816#6 23750816#6"/>
    <taz id="-23750816#7" edges="-23750816#7 23750816#7"/>
    <taz id="-23750816#8" edges="-23750816#8 23750816#8"/>
    <taz id="-23750816#9" edges="-23750816#9 23750816#9"/>
    <taz id="-23750887#3" edges="-23750887#3 23750887#3"/>
    <taz id="-23750887#4" edges="-23750887#4 23750887#4"/>
    <taz id="-23750887#5" edges="-23750887#5 23750887#5"/>
    <taz id="-23750887#6" edges="-23750887#6 -69366790#0 23750887#6"/>
    <taz id="-23752297#0" edges="-23752297#0 23752297#0"/>
    <taz id="-23752297#1" edges="-23752297#1 23752297#1"/>
    <taz id="-23752297#10" edges="-23752297#10 23752297#10"/>
    <taz id="-23752297#11" edges="-23752297#11 23752297#11"/>
    <taz id="-23752297#2" edges="-23752297#2 23752297#2"/>
    <taz id="-23752297#3" edges="-23752297#3 23752297#3"/>
    <taz id="-23752297#4" edges="-23752297#4 23752297#4"/>
    <taz id="-23752297#5" edges="-23752297#5 23752297#5"/>
    <taz id="-23752297#6" edges="-23752297#6 23752297#6"/>
    <taz id="-23752297#7" edges="-23752297#7 23752297#7"/>
    <taz id="-23752297#8" edges="-23752297#8 23752297#8"/>
    <taz id="-23752297#9" edges="-23752297#9 23752297#9"/>
    <taz id="-23841573#0" edges="-23841573#0 23841573#0"/>
    <taz id="-23841573#1" edges="-23841573#1 23841573#1"/>
    <taz id="-23841573#2" edges="-23841573#2 23841573#2"/>
    <taz id="-23841573#3" edges="-23841573#3 23841573#3"/>
    <taz id="-23841573#4" edges="-23841573#4 23841573#4"/>
    <taz id="-23841573#5" edges="-23841573#5 23841573#5"/>
    <taz id="-24836121#0" edges="-24836121#0 24836121#0"/>
    <taz id="-24836121#1" edges="-24836121#1 24836121#1"/>
    <taz id="-24836121#2" edges="-24836121#2 24836121#2"/>
    <taz id="-24836123#0" edges="-24836123#0 24836123#0"/>
    <taz id="-24836123#1" edges="-24836123#1 24836123#1"/>
    <taz id="-24836123#2" edges="-24836123#2 24836123#2"/>
    <taz id="-24836123#3" edges="-24836123#3 24836123#3"/>
    <taz id="-24836123#4" edges="-24836123#4 24836123#4"/>
    <taz id="-24836123#5" edges="-24836123#5 24836123#5"/>
    <taz id="-24836123#6" edges="-24836123#6 24836123#6"/>
    <taz id="-24836126#0" edges="-24836126#0 24836126#0"/>
    <taz id="-24836126#1" edges="-24836126#1 24836126#1"/>
    <taz id="-24836126#2" edges="-24836126#2 24836126#2"/>
    <taz id="-24836126#3" edges="-24836126#3 24836126#3"/>
    <taz id="-25229726#0" edges="-25229726#0 25229726#0"/>
    <taz id="-25229726#1" edges="-25229726#1 25229726#1"/>
    <taz id="-25229726#2" edges="-25229726#2 25229726#2"/>
    <taz id="-25229726#3" edges="-25229726#3 25229726#3"/>
    <taz id="-25229824#0" edges="-25229824#0 25229824#0"/>
    <taz id="-25229824#1" edges="-25229824#1 25229824#1"/>
    <taz id="-25229824#2" edges="-25229824#2 25229824#2"/>
    <taz id="-314424836" edges="-314424836 314424836"/>
    <taz id="-314723538" edges="-314723538 314723538"/>
    <taz id="-33170030" edges="-33170030 33170030"/>
    <taz id="-33170657#0" edges="-33170657#0 33170657#0"/>
    <taz id="-33170657#1" edges="-33170657#1 33170657#1"/>
    <taz id="-33171889#0" edges="-33171889#0 33171889#0"/>
    <taz id="-33171889#1" edges="-33171889#1 33171889#1"/>
    <taz id="-33171889#2" edges="-33171889#1 -33171889#2 33171889#2"/>
    <taz id="-33195274#0" edges="-33195274#0 33195274#0"/>
    <taz id="-33195274#1" edges="-33195274#1 33195274#1"/>
    <taz id="-33195274#2" edges="-33195274#2 33195274#2"/>
    <taz id="-33195337#0" edges="-33195337#0 33195337#0"/>
    <taz id="-33195337#1" edges="-33195337#1 33195337#1"/>
    <taz id="-33195337#10" edges="-33195337#10 33195337#10"/>
    <taz id="-33195337#11" edges="-33195337#11 33195337#11"/>
    <taz id="-33195337#2" edges="-33195337#2 33195337#2"/>
    <taz id="-33195337#3" edges="-33195337#3 33195337#3"/>
    <taz id="-33195337#4" edges="-33195337#4 33195337#4"/>
    <taz id="-33195337#5" edges="-33195337#5 33195337#5"/>
    <taz id="-33195337#6" edges="-33195337#6 33195337#6"/>
    <taz id="-33195337#7" edges="-33195337#7 33195337#7"/>
    <taz id="-33195337#8" edges="-33195337#8 33195337#8"/>
    <taz id="-33195337#9" edges="-33195337#9 33195337#9"/>
    <taz id="-33195347#0" edges="-33195347#0 33195347#0"/>
    <taz id="-33195347#1" edges="-33195347#1 33195347#1"/>
    <taz id="-33195347#2" edges="-33195347#2 33195347#2"/>
    <taz id="-33195347#3" edges="-33195347#3 33195347#3"/>
    <taz id="-33195367" edges="-33195367 33195367"/>
    <taz id="-33195372#0" edges="-33195372#0 33195372#0"/>
    <taz id="-33195372#1" edges="-33195372#1 33195372#1"/>
    <taz id="-33195372#10" edges="-33195372#10 33195372#10"/>
    <taz id="-33195372#2" edges="-33195372#2 33195372#2"/>
    <taz id="-33195372#3" edges="-33195372#3 33195372#3"/>
    <taz id="-33195372#4" edges="-33195372#4 33195372#4"/>
    <taz id="-33195372#5" edges="-33195372#5 33195372#5"/>
    <taz id="-33195372#6" edges="-33195372#6 33195372#6"/>
    <taz id="-33195372#7" edges="-33195372#7 33195372#7"/>
    <taz id="-33195372#8" edges="-33195372#8 33195372#8"/>
    <taz id="-33195372#9" edges="-33195372#9 33195372#9"/>
    <taz id="-33195382#0" edges="-33195382#0 33195382#0"/>
    <taz id="-33195382#1" edges="-33195382#1 33195382#1"/>
    <taz id="-33195382#10" edges="-33195382#10 33195382#10"/>
    <taz id="-33195382#11" edges="-33195382#11 33195382#11"/>
    <taz id="-33195382#12" edges="-33195382#12 33195382#12"/>
    <taz id="-33195382#13" edges="-33195382#13 33195382#13"/>
    <taz id="-33195382#14" edges="-33195382#14 33195382#14"/>
    <taz id="-33195382#15" edges="-33195382#15 33195382#15"/>
    <taz id="-33195382#16" edges="-33195382#16 33195382#16"/>
    <taz id="-33195382#17" edges="-33195382#17 33195382#17"/>
    <taz id="-33195382#18" edges="-33195382#18 33195382#18"/>
    <taz id="-33195382#2" edges="-33195382#2 33195382#2"/>
    <taz id="-33195382#3" edges="-33195382#3 33195382#3"/>
    <taz id="-33195382#4" edges="-33195382#4 33195382#4"/>
    <taz id="-33195382#5" edges="-33195382#5 33195382#5"/>
    <taz id="-33195382#6" edges="-33195382#6 33195382#6"/>
    <taz id="-33195382#7" edges="-33195382#7 33195382#7"/>
    <taz id="-33195382#8" edges="-33195382#8 33195382#8"/>
    <taz id="-33195382#9" edges="-33195382#9 33195382#9"/>
    <taz id="-33196007#0" edges="-33196007#0 33196007#0"/>
    <taz id="-33196009#0" edges="-33196009#0 33196009#0"/>
    <taz id="-33196009#1" edges="-33196009#1 33196009#1"/>
    <taz id="-33196012#0" edges="-33196012#0 33196012#0"/>
    <taz id="-33196012#1" edges="-33196012#1 33196012#1"/>
    <taz id="-33196012#2" edges="-33196012#2 33196012#2"/>
    <taz id="-33196012#3" edges="-33196012#3 33196012#3"/>
    <taz id="-33196126" edges="-33196126 33196126"/>
    <taz id="-33196587" edges="-33196587 33196587"/>
    <taz id="-33196589#0" edges="-33196589#0 33196589#0"/>
    <taz id="-33196589#1" edges="-33196589#1 33196589#1"/>
    <taz id="-33197152#0" edges="-33197152#0 33197152#0"/>
    <taz id="-33197152#1" edges="-33197152#1 33197152#1"/>
    <taz id="-33197152#2" edges="-33197152#2 33197152#2"/>
    <taz id="-33197152#3" edges="-33197152#3 33197152#3"/>
    <taz id="-33197152#4" edges="-33197152#4 33197152#4"/>
    <taz id="-33197152#5" edges="-33197152#5 33197152#5"/>
    <taz id="-33197152#6" edges="-33197152#5 -33197152#6 33197152#6"/>
    <taz id="-33276341#0" edges="-33276341#0 33276341#0"/>
    <taz id="-33276341#1" edges="-33276341#1 33276341#1"/>
    <taz id="-33276341#2" edges="-33276341#2 33276341#2"/>
    <taz id="-33277224#0" edges="-33277224#0 33277224#0"/>
    <taz id="-33298495#0" edges="-33298495#0 33298495#0"/>
    <taz id="-33298495#1" edges="-33298495#1 33298495#1"/>
    <taz id="-33298495#10" edges="-33298495#10 33298495#10"/>
    <taz id="-33298495#11" edges="-33298495#11 33298495#11"/>
    <taz id="-33298495#12" edges="-33298495#12 33298495#12"/>
    <taz id="-33298495#13" edges="-33298495#13 33298495#13"/>
    <taz id="-33298495#14" edges="-33298495#14 33298495#14"/>
    <taz id="-33298495#15" edges="-33298495#15 33298495#15"/>
    <taz id="-33298495#16" edges="-33298495#16 33298495#16"/>
    <taz id="-33298495#17" edges="-33298495#17 33298495#17"/>
    <taz id="-33298495#18" edges="-33298495#18 33298495#18"/>
    <taz id="-33298495#19" edges="-33298495#19 33298495#19"/>
    <taz id="-33298495#2" edges="-33298495#2 33298495#2"/>
    <taz id="-33298495#3" edges="-33298495#3 33298495#3"/>
    <taz id="-33298495#4" edges="-33298495#4 33298495#4"/>
    <taz id="-33298495#5" edges="-33298495#5 33298495#5"/>
    <taz id="-33298495#6" edges="-33298495#6 33298495#6"/>
    <taz id="-33298495#7" edges="-33298495#7 33298495#7"/>
    <taz id="-33298495#8" edges="-33298495#8 33298495#8"/>
    <taz id="-33298495#9" edges="-33298495#9 33298495#9"/>
    <taz id="-33299162#0" edges="-33299162#0 33299162#0"/>
    <taz id="-33299162#1" edges="-33299162#1 33299162#1"/>
    <taz id="-33299162#2" edges="-33299162#2 33299162#2"/>
    <taz id="-33299162#3" edges="-33299162#3 33299162#3"/>
    <taz id="-34122561" edges="-34122561 34122561"/>
    <taz id="-34122576#0" edges="-34122576#0 34122576#0"/>
    <taz id="-34122593" edges="-34122593 34122593"/>
    <taz id="-34123641" edges="-34123641 34123641"/>
    <taz id="-34123644" edges="-34123644 34123644"/>
    <taz id="-34126308#0" edges="-34126308#0 34126308#0"/>
    <taz id="-34126308#1" edges="-34126308#1 34126308#1"/>
    <taz id="-34126308#2" edges="-34126308#2 34126308#2"/>
    <taz id="-34369589#0" edges="-34369589#0 34369589#0"/>
    <taz id="-34369589#1" edges="-34369589#1 34369589#1"/>
    <taz id="-34369589#2" edges="-34369589#2 34369589#2"/>
    <taz id="-34369589#3" edges="-34369589#3 34369589#3"/>
    <taz id="-34369589#4" edges="-34369589#4 34369589#4"/>
    <taz id="-34369589#5" edges="-34369589#5 34369589#5"/>
    <taz id="-385130254" edges="-385130254 385130254"/>
    <taz id="-386441551#0" edges="-386441551#0 386441551#0"/>
    <taz id="-386441551#1" edges="-386441551#1 386441551#1"/>
    <taz id="-41166373#21" edges="-41166373#21 41166373#21"/>
    <taz id="-41166373#22" edges="-41166373#22 41166373#22"/>
    <taz id="-41180972#0" edges="-41180972#0 41180972#0"/>
    <taz id="-41180972#1" edges="-41180972#1 41180972#1"/>
    <taz id="-41180972#2" edges="-41180972#2 41180972#2"/>
    <taz id="-41180974#0" edges="-41180974#0 41180974#0"/>
    <taz id="-41180974#1" edges="-41180974#1 41180974#1"/>
    <taz id="-41180975#0" edges="-41180975#0 41180975#0"/>
    <taz id="-41180975#1" edges="-41180975#1 41180975#1"/>
    <taz id="-41180975#2" edges="-41180975#2 41180975#2"/>
    <taz id="-41180975#3" edges="-41180975#3 -41180975#4 41180975#3"/>
    <taz id="-41180975#4" edges="-41180975#3 -41180975#4 41180975#4"/>
    <taz id="-436969362#0" edges="-436969362#0 436969362#0"/>
    <taz id="-436969362#1" edges="-436969362#1 436969362#1"/>
    <taz id="-436969362#2" edges="-436969362#2 436969362#2"/>
    <taz id="-436969362#3" edges="-436969362#3 436969362#3"/>
    <taz id="-436969423" edges="-436969423 436969423"/>
    <taz id="-436969459" edges="-436969459 436969459"/>
    <taz id="-436969464" edges="-436969464 436969464"/>
    <taz id="-436969534" edges="-436969534 436969534"/>
    <taz id="-436969573" edges="-436969573 436969573"/>
    <taz id="-436969606" edges="-436969606 436969606"/>
    <taz id="-462457330#0" edges="-462457330#0 462457330#0"/>
    <taz id="-462457330#1" edges="-462457330#1 462457330#1"/>
    <taz id="-462457330#2" edges="-462457330#2 462457330#2"/>
    <taz id="-464677747" edges="-464677747 464677747"/>
    <taz id="-465356596" edges="-465356596 465356596"/>
    <taz id="-465358761" edges="-465358761 465358761"/>
    <taz id="-478376624" edges="-478376624 478376624"/>
    <taz id="-479835590#0" edges="-479835590#0 -479835590#1 479835590#0"/>
    <taz id="-479835590#1" edges="-479835590#1 479835590#1"/>
    <taz id="-479835590#2" edges="-479835590#2 479835590#2"/>
    <taz id="-479835590#3" edges="-479835590#3 479835590#3"/>
    <taz id="-479835590#4" edges="-479835590#4 479835590#4"/>
    <taz id="-479835590#5" edges="-479835590#5 479835590#5"/>
    <taz id="-490347864" edges="-490347864 -69366788 490347864 69366788"/>
    <taz id="-56733583" edges="-56733583 56733583"/>
    <taz id="-56733626" edges="-56733626 56733626"/>
    <taz id="-56733632" edges="-56733632 56733632"/>
    <taz id="-56733633" edges="-56733633 56733633"/>
    <taz id="-580560778" edges="-580560778 580560778"/>
    <taz id="-580560816" edges="-580560816 580560816"/>
    <taz id="-581635178" edges="-581635178 581635178"/>
    <taz id="-584736370" edges="-584736370 584736370"/>
    <taz id="-584736543#0" edges="-584736543#0 584736543#0"/>
    <taz id="-584736543#1" edges="-584736543#1 584736543#1"/>
    <taz id="-59378899#0" edges="-59378899#0 59378899#0"/>
    <taz id="-59378899#1" edges="-59378899#1 59378899#1"/>
    <taz id="-59378908#0" edges="-59378908#0 59378908#0"/>
    <taz id="-59378908#1" edges="-59378908#1 59378908#1"/>
    <taz id="-59378908#2" edges="-59378908#2 59378908#2"/>
    <taz id="-59378908#3" edges="-59378908#3 59378908#3"/>
    <taz id="-59378908#4" edges="-59378908#4 59378908#4"/>
    <taz id="-59378909#0" edges="-59378909#0 59378909#0"/>
    <taz id="-59378909#1" edges="-59378909#1 59378909#1"/>
    <taz id="-59378909#2" edges="-59378909#2 59378909#2"/>
    <taz id="-65417762#0" edges="-65417762#0 65417762#0"/>
    <taz id="-65417762#1" edges="-65417762#1 65417762#1"/>
    <taz id="-65417772#0" edges="-65417772#0 65417772#0"/>
    <taz id="-65417772#1" edges="-65417772#1 65417772#1"/>
    <taz id="-65417774#0" edges="-65417774#0 65417774#0"/>
    <taz id="-65417774#1" edges="-65417774#1 65417774#1"/>
    <taz id="-65417774#2" edges="-65417774#2 65417774#2"/>
    <taz id="-65417774#3" edges="-65417774#3 65417774#3"/>
    <taz id="-65417774#4" edges="-65417774#4 65417774#4"/>
    <taz id="-65417774#5" edges="-65417774#5 65417774#5"/>
    <taz id="-65417774#6" edges="-65417774#6 65417774#6"/>
    <taz id="-65417774#7" edges="-65417774#7 65417774#7"/>
    <taz id="-65417774#8" edges="-65417774#8 65417774#8"/>
    <taz id="-65417784" edges="-65417784 65417784"/>
    <taz id="-65417795" edges="-65417795 65417795"/>
    <taz id="-65417801#0" edges="-65417801#0 65417801#0"/>
    <taz id="-65417801#1" edges="-65417801#1 65417801#1"/>
    <taz id="-65417801#2" edges="-65417801#2 65417801#2"/>
    <taz id="-65417801#3" edges="-65417801#3 65417801#3"/>
    <taz id="-65417801#4" edges="-65417801#4 65417801#4"/>
    <taz id="-65417801#5" edges="-65417801#5 65417801#5"/>
    <taz id="-65417821" edges="-65417821 65417821"/>
    <taz id="-65583610#0" edges="-65583610#0 65583610#0"/>
    <taz id="-65583610#1" edges="-65583610#1 65583610#1"/>
    <taz id="-65583610#2" edges="-65583610#2 65583610#2"/>
    <taz id="-65583610#3" edges="-65583610#3 65583610#3"/>
    <taz id="-65583610#4" edges="-65583610#4 65583610#4"/>
    <taz id="-65583610#5" edges="-65583610#0 -65583610#5 65583610#5"/>
    <taz id="-65583611" edges="-65583611 65583611"/>
    <taz id="-65583612" edges="-65583612 65583612"/>
    <taz id="-65583613" edges="-65583613 65583613"/>
    <taz id="-65583616#0" edges="-65583616#0 65583616#0"/>
    <taz id="-65583616#1" edges="-65583616#1 65583616#1"/>
    <taz id="-65583617" edges="-65583617 65583617"/>
    <taz id="-65583621#0" edges="-65583621#0 65583621#0"/>
    <taz id="-65583621#1" edges="-65583621#1 65583621#1"/>
    <taz id="-65583621#2" edges="-65583621#2 65583621#2"/>
    <taz id="-65583622#0" edges="-65583622#0 65583622#0"/>
    <taz id="-65583622#1" edges="-65583622#1 65583622#1"/>
    <taz id="-65583623" edges="-65583623 65583623"/>
    <taz id="-65583625#0" edges="-65583625#0 65583625#0"/>
    <taz id="-65583625#1" edges="-65583625#1 65583625#1"/>
    <taz id="-65583625#2" edges="-65583625#2 65583625#2"/>
    <taz id="-65583625#3" edges="-65583625#3 65583625#3"/>
    <taz id="-65583627" edges="-65583627 65583627"/>
    <taz id="-65583632" edges="-65583632 65583632"/>
    <taz id="-65583633" edges="-65583633 65583633"/>
    <taz id="-65583635" edges="-65583635 65583635"/>
    <taz id="-65583636" edges="-65583636 65583636"/>
    <taz id="-65583637#0" edges="-65583637#0 65583637#0"/>
    <taz id="-65583637#1" edges="-65583637#1 65583637#1"/>
    <taz id="-65583640" edges="-65583640 65583640"/>
    <taz id="-65583645" edges="-65583645 65583645"/>
    <taz id="-66209103" edges="-66209103 66209103"/>
    <taz id="-66209108" edges="-66209108 66209108"/>
    <taz id="-66790586" edges="-66790586 66790586"/>
    <taz id="-66790593" edges="-66790593 66790593"/>
    <taz id="-66790596" edges="-66790596 66790596"/>
    <taz id="-66790597#0" edges="-66790597#0 66790597#0"/>
    <taz id="-66790597#1" edges="-66790597#1 66790597#1"/>
    <taz id="-66790597#2" edges="-66790597#2 66790597#2"/>
    <taz id="-66790597#3" edges="-66790597#3 66790597#3"/>
    <taz id="-66790597#4" edges="-66790597#4 66790597#4"/>
    <taz id="-66790597#5" edges="-66790597#5 66790597#5"/>
    <taz id="-66790598#0" edges="-66790598#0 66790598#0"/>
    <taz id="-66790598#1" edges="-66790598#1 66790598#1"/>
    <taz id="-66790599" edges="-66790599 66790599"/>
    <taz id="-66790600#0" edges="-66790600#0 66790600#0"/>
    <taz id="-66790600#1" edges="-66790600#1 66790600#1"/>
    <taz id="-66790600#2" edges="-66790600#2 66790600#2"/>
    <taz id="-66790602#0" edges="-66790602#0 66790602#0"/>
    <taz id="-66790602#1" edges="-66790602#1 66790602#1"/>
    <taz id="-66790604#0" edges="-66790604#0 66790604#0"/>
    <taz id="-66790604#1" edges="-66790604#1 66790604#1"/>
    <taz id="-66790604#2" edges="-66790604#2 66790604#2"/>
    <taz id="-66790604#3" edges="-66790604#3 66790604#3"/>
    <taz id="-67135964" edges="-67135964 67135964"/>
    <taz id="-67135969" edges="-67135969 67135969"/>
    <taz id="-67135977" edges="-67135977 67135977"/>
    <taz id="-67135984" edges="-67135984 67135984"/>
    <taz id="-67135986" edges="-67135986 67135986"/>
    <taz id="-67135987#0" edges="-67135987#0 67135987#0"/>
    <taz id="-67135987#1" edges="-67135987#1 67135987#1"/>
    <taz id="-67136067#0" edges="-67136067#0 67136067#0"/>
    <taz id="-67136067#1" edges="-67136067#1 67136067#1"/>
    <taz id="-67286183#0" edges="-67286183#0 67286183#0"/>
    <taz id="-67286183#1" edges="-67286183#1 67286183#1"/>
    <taz id="-67286183#10" edges="-67286183#10 67286183#10"/>
    <taz id="-67286183#11" edges="-67286183#11 67286183#11"/>
    <taz id="-67286183#12" edges="-67286183#12 67286183#12"/>
    <taz id="-67286183#2" edges="-67286183#2 67286183#2"/>
    <taz id="-67286183#3" edges="-67286183#3 67286183#3"/>
    <taz id="-67286183#4" edges="-67286183#4 67286183#4"/>
    <taz id="-67286183#5" edges="-67286183#5 67286183#5"/>
    <taz id="-67286183#6" edges="-67286183#6 67286183#6"/>
    <taz id="-67286183#7" edges="-67286183#7 67286183#7"/>
    <taz id="-67286183#8" edges="-67286183#8 67286183#8"/>
    <taz id="-67286183#9" edges="-67286183#9 67286183#9"/>
    <taz id="-67588221#1" edges="-67588221#1 67588221#1"/>
    <taz id="-67588223" edges="-67588223 67588223"/>
    <taz id="-67968014#1" edges="-67968014#1 67968014#1"/>
    <taz id="-68175355" edges="-68175355 68175355"/>
    <taz id="-68312888#0" edges="-68312888#0 68312888#0"/>
    <taz id="-68312888#1" edges="-68312888#1 68312888#1"/>
    <taz id="-68312906" edges="-68312906 68312906"/>
    <taz id="-68312907#0" edges="-68312907#0 68312907#0"/>
    <taz id="-68312907#1" edges="-68312907#1 68312907#1"/>
    <taz id="-68312908#0" edges="-68312908#0 68312908#0"/>
    <taz id="-68312908#1" edges="-68312908#1 68312908#1"/>
    <taz id="-68312911" edges="-68312911 68312911"/>
    <taz id="-68312923#1" edges="-68312923#1 68312923#1"/>
    <taz id="-68312928" edges="-68312928 68312928"/>
    <taz id="-68521942#0" edges="-68521942#0 68521942#0"/>
    <taz id="-68521942#1" edges="-68521942#1 68521942#1"/>
    <taz id="-68521942#2" edges="-68521942#2 68521942#2"/>
    <taz id="-68521942#3" edges="-68521942#3 68521942#3"/>
    <taz id="-68521942#4" edges="-68521942#4 68521942#4"/>
    <taz id="-68521942#5" edges="-68521942#5 68521942#5"/>
    <taz id="-68521942#6" edges="-68521942#6 68521942#6"/>
    <taz id="-68521942#7" edges="-68521942#7 68521942#7"/>
    <taz id="-68521944#1" edges="-68521944#1 68521944#1"/>
    <taz id="-68521951" edges="-68521951 68521951"/>
    <taz id="-68521968#0" edges="-68521968#0 68521968#0"/>
    <taz id="-68521970#0" edges="-68521970#0 68521970#0"/>
    <taz id="-68521970#1" edges="-68521970#1 68521970#1"/>
    <taz id="-68857742#0" edges="-68857742#0 68857742#0"/>
    <taz id="-68857742#1" edges="-68857742#1 68857742#1"/>
    <taz id="-68857743" edges="-68857743 68857743"/>
    <taz id="-68857749#0" edges="-68857749#0 68857749#0"/>
    <taz id="-68857749#1" edges="-68857749#1 68857749#1"/>
    <taz id="-68857749#2" edges="-68857749#2 68857749#2"/>
    <taz id="-68857749#3" edges="-68857749#3 68857749#3"/>
    <taz id="-68857766" edges="-68857766 68857766"/>
    <taz id="-68857770" edges="-68857770 68857770"/>
    <taz id="-68857778" edges="-68857778 68857778"/>
    <taz id="-68857783#0" edges="-68857783#0 68857783#0"/>
    <taz id="-68857783#1" edges="-68857783#1 68857783#1"/>
    <taz id="-68857783#2" edges="-68857783#2 68857783#2"/>
    <taz id="-68857783#3" edges="-68857783#3 68857783#3"/>
    <taz id="-68857783#4" edges="-68857783#4 68857783#4"/>
    <taz id="-68857785#0" edges="-68857785#0 68857785#0"/>
    <taz id="-68857785#1" edges="-68857785#1 68857785#1"/>
    <taz id="-68858068#0" edges="-68858068#0 68858068#0"/>
    <taz id="-69020713#0" edges="-69020713#0 69020713#0"/>
    <taz id="-69020713#1" edges="-69020713#1 69020713#1"/>
    <taz id="-69020713#2" edges="-69020713#2 69020713#2"/>
    <taz id="-69020722" edges="-69020722 69020722"/>
    <taz id="-69020724" edges="-69020724 69020724"/>
    <taz id="-69366722#0" edges="-69366722#0 69366722#0"/>
    <taz id="-69366722#1" edges="-69366722#1 69366722#1"/>
    <taz id="-69366722#2" edges="-69366722#2 69366722#2"/>
    <taz id="-69366722#3" edges="-69366722#3 69366722#3"/>
    <taz id="-69366722#4" edges="-69366722#4 69366722#4"/>
    <taz id="-69366726#0" edges="-69366726#0 69366726#0"/>
    <taz id="-69366726#1" edges="-69366726#1 69366726#1"/>
    <taz id="-69366728#0" edges="-69366728#0 69366728#0"/>
    <taz id="-69366728#1" edges="-69366728#1 69366728#1"/>
    <taz id="-69366728#2" edges="-69366728#2 69366728#2"/>
    <taz id="-69366736" edges="-69366736 69366736"/>
    <taz id="-69366738#0" edges="-69366738#0 69366738#0"/>
    <taz id="-69366738#1" edges="-69366738#1 69366738#1"/>
    <taz id="-69366749#0" edges="-69366749#0 69366749#0"/>
    <taz id="-69366749#1" edges="-69366749#1 69366749#1"/>
    <taz id="-69366751#0" edges="-69366751#0 69366751#0"/>
    <taz id="-69366751#1" edges="-69366751#1 69366751#1"/>
    <taz id="-69366763#0" edges="-69366763#0 69366763#0"/>
    <taz id="-69366767#0" edges="-69366767#0 69366767#0"/>
    <taz id="-69366767#1" edges="-69366767#1 69366767#1"/>
    <taz id="-69366767#10" edges="-69366767#10 69366767#10"/>
    <taz id="-69366767#11" edges="-69366767#11 69366767#11"/>
    <taz id="-69366767#12" edges="-69366767#12 69366767#12"/>
    <taz id="-69366767#13" edges="-69366767#13 69366767#13"/>
    <taz id="-69366767#14" edges="-69366767#14 69366767#14"/>
    <taz id="-69366767#15" edges="-69366767#15 69366767#15"/>
    <taz id="-69366767#16" edges="-69366767#16 69366767#16"/>
    <taz id="-69366767#2" edges="-69366767#2 69366767#2"/>
    <taz id="-69366767#3" edges="-69366767#3 69366767#3"/>
    <taz id="-69366767#4" edges="-69366767#4 69366767#4"/>
    <taz id="-69366767#5" edges="-69366767#5 69366767#5"/>
    <taz id="-69366767#6" edges="-69366767#6 69366767#6"/>
    <taz id="-69366767#7" edges="-69366767#7 69366767#7"/>
    <taz id="-69366767#8" edges="-69366767#8 69366767#8"/>
    <taz id="-69366767#9" edges="-69366767#9 69366767#9"/>
    <taz id="-69366770#0" edges="-69366770#0 69366770#0"/>
    <taz id="-69366770#1" edges="-69366770#1 69366770#1"/>
    <taz id="-69366770#2" edges="-69366770#2 69366770#2"/>
    <taz id="-69366770#3" edges="---69366770#3 --69366770#3 -69366770#3 69366770#3 gneE1"/>
    <taz id="-69366770#4" edges="--69366770#4 -69366770#4 69366770#4 gneE0 gneE2"/>
    <taz id="-69366770#5" edges="-69366770#5 69366770#5"/>
    <taz id="-69366772#0" edges="-69366772#0 69366772#0"/>
    <taz id="-69366772#1" edges="-69366772#1 69366772#1"/>
    <taz id="-69366772#2" edges="-69366772#2 69366772#2"/>
    <taz id="-69366772#3" edges="-69366772#3 69366772#3"/>
    <taz id="-69366772#4" edges="-69366772#4 69366772#4"/>
    <taz id="-69366772#5" edges="-69366772#5 69366772#5"/>
    <taz id="-69366772#6" edges="-69366772#6 69366772#6"/>
    <taz id="-69366772#7" edges="-69366772#7 69366772#7"/>
    <taz id="-69366774#0" edges="-69366774#0 69366774#0"/>
    <taz id="-69366774#1" edges="-69366774#1 69366774#1"/>
    <taz id="-69366779#0" edges="-69366779#0 69366779#0"/>
    <taz id="-69366779#1" edges="-69366779#1 69366779#1"/>
    <taz id="-69366779#2" edges="-69366779#2 69366779#2"/>
    <taz id="-69366779#3" edges="-69366779#3 69366779#3"/>
    <taz id="-69366780" edges="-69366780 69366780"/>
    <taz id="-69366785#0" edges="-69366785#0 69366785#0"/>
    <taz id="-69366785#1" edges="-69366785#1 69366785#1"/>
    <taz id="-69366788" edges="-490347864 -69366788 490347864 69366788"/>
    <taz id="-69366790#0" edges="-69366790#0 69366790#0"/>
    <taz id="-69366790#1" edges="-69366790#1 69366790#1"/>
    <taz id="-69366790#2" edges="-69366790#2 69366790#2"/>
    <taz id="-69366791" edges="-69366791 69366791"/>
    <taz id="-69545501" edges="-69545501 69545501"/>
    <taz id="-69545503" edges="-69545503 69545503"/>
    <taz id="-69545511" edges="-69545511 69545511"/>
    <taz id="-69545512" edges="-69545512 69545512"/>
    <taz id="-69545516#0" edges="-69545516#0 69545516#0"/>
    <taz id="-69545516#1" edges="-69545516#1 69545516#1"/>
    <taz id="-69545517#0" edges="-69545517#0 69545517#0"/>
    <taz id="-69545517#1" edges="-69545517#1 69545517#1"/>
    <taz id="-69709905#0" edges="-69709905#0 69709905#0"/>
    <taz id="-69709905#1" edges="-69709905#1 69709905#1"/>
    <taz id="-69709907#0" edges="-69709907#0 69709907#0"/>
    <taz id="-69709907#1" edges="-69709907#1 69709907#1"/>
    <taz id="-69709907#10" edges="-69709907#10 69709907#10"/>
    <taz id="-69709907#11" edges="-69709907#11 69709907#11"/>
    <taz id="-69709907#2" edges="-69709907#2 69709907#2"/>
    <taz id="-69709907#3" edges="-69709907#3 69709907#3"/>
    <taz id="-69709907#4" edges="-69709907#4 69709907#4"/>
    <taz id="-69709907#5" edges="-69709907#5 69709907#5"/>
    <taz id="-69709907#6" edges="-69709907#6 69709907#6"/>
    <taz id="-69709907#7" edges="-69709907#7 69709907#7"/>
    <taz id="-69709907#8" edges="-69709907#8 69709907#8"/>
    <taz id="-69709907#9" edges="-69709907#9 69709907#9"/>
    <taz id="-69709908" edges="-69709908 69709908"/>
    <taz id="-69709912#0" edges="-69709912#0 69709912#0"/>